####################################################################### 
# 
# This file contains crystal structure data downloaded from the 
# Cambridge Structural Database (CSD) hosted by the Cambridge 
# Crystallographic Data Centre (CCDC).
# 
# Full information about CCDC data access policies and citation 
# guidelines are available at http://www.ccdc.cam.ac.uk/access/V1 
# 
# Audit and citation data items may have been added by the CCDC. 
# Please retain this information to preserve the provenance of 
# this file and to allow appropriate attribution of the data. 
# 
#######################################################################

data_I
_audit_block_doi                 10.25505/fiz.icsd.cc20vqj4
_database_code_depnum_ccdc_archive 'CCDC 1872726'
loop_
_citation_id
_citation_doi
_citation_year
1 10.1021/acsnano.8b00267 2018
_audit_update_record             
;
2018-10-11 deposited with the CCDC.	2022-09-02 downloaded from the CCDC.
;
#=======================================================================

# 5. CHEMICAL DATA

_chemical_name_systematic        
; ?
;
_chemical_name_common            ?
_chemical_formula_moiety         ?
_chemical_formula_structural     ?
_chemical_formula_analytical     ?
_chemical_formula_iupac          ?
_chemical_formula_sum            'Cs1 I3 Pb1'
_chemical_formula_weight         720.8
_chemical_melting_point          ?
_chemical_compound_source        ?
_chemical_absolute_configuration .

#=======================================================================

# 6. POWDER SPECIMEN AND CRYSTAL DATA

_symmetry_cell_setting           tetragonal
_symmetry_space_group_name_H-M   'P 4/m b m'
_symmetry_space_group_name_Hall  '-P 4;-2ab'
_symmetry_Int_Tables_number      127

loop_
_symmetry_equiv_pos_site_id
_symmetry_equiv_pos_as_xyz
1 x,y,z
2 -x,-y,z
3 -y,x,z
4 y,-x,z
5 -x+1/2,y+1/2,-z
6 x+1/2,-y+1/2,-z
7 y+1/2,x+1/2,-z
8 -y+1/2,-x+1/2,-z
9 -x,-y,-z
10 x,y,-z
11 y,-x,-z
12 -y,x,-z
13 x+1/2,-y+1/2,z
14 -x+1/2,y+1/2,z
15 -y+1/2,-x+1/2,z
16 y+1/2,x+1/2,z

_cell_length_a                   8.82690(3)
_cell_length_b                   8.82690(3)
_cell_length_c                   6.29902(3)
_cell_angle_alpha                90
_cell_angle_beta                 90
_cell_angle_gamma                90
_cell_volume                     490.783(3)

_cell_formula_units_Z            2
_cell_measurement_temperature    510
_cell_special_details            
; ?
;

_exptl_crystal_density_diffrn    4.8761
_exptl_crystal_density_meas      ?
_exptl_crystal_density_method    ?
_exptl_crystal_F_000             592

_pd_spec_size_axial              ?
_pd_spec_size_equat              ?
_pd_spec_size_thick              ?
_pd_spec_mounting                ?
_pd_spec_mount_mode              ?
_pd_spec_shape                   ?
_pd_char_particle_morphology     ?
_pd_char_colour                  ?
_pd_prep_cool_rate               ?
_pd_prep_pressure                ?
_pd_prep_temperature             ?

_exptl_absorpt_coefficient_mu    7.212
_exptl_absorpt_correction_type   ?
_exptl_absorpt_process_details   ?
_exptl_absorpt_correction_T_min  ?
_exptl_absorpt_correction_T_max  ?

#=======================================================================

# 7. EXPERIMENTAL DATA

_exptl_special_details           ?
_pd_instr_location               
; ?
;
_pd_calibration_special_details  
; ?
;

_diffrn_ambient_temperature      510
_diffrn_source                   ?
_diffrn_source_target            ?
_diffrn_source_type              ?
_diffrn_radiation_type           ?
_diffrn_radiation_wavelength     0.41391
_diffrn_radiation_monochromator  ?
_diffrn_measurement_device       ?
_diffrn_measurement_device_type  ?
_diffrn_detector                 ?
_diffrn_detector_type            ?

_pd_meas_scan_method             ?
_pd_meas_special_details         
; ?
;
_pd_meas_number_of_points        12748
_pd_meas_2theta_range_min        0.500
_pd_meas_2theta_range_max        25.994
_pd_meas_2theta_range_inc        0.002

_diffrn_radiation_probe          X-ray

#=======================================================================

# 8. REFINEMENT DATA

_pd_proc_ls_special_details      
; ?
;
_pd_proc_ls_profile_function     Pseudo-Voigt
_pd_proc_ls_background_function  '20 Legendre polynoms'
_pd_proc_ls_pref_orient_corr     none
_pd_proc_ls_prof_R_factor        0.0935
_pd_proc_ls_prof_wR_factor       0.1228
_pd_proc_ls_prof_wR_expected     0.0926

_refine_special_details          
; ?
;

_refine_ls_R_factor_gt           0.0509
_refine_ls_wR_factor_gt          0.0503
_refine_ls_R_factor_all          0.0584
_refine_ls_wR_factor_all         0.0507
_refine_ls_goodness_of_fit_all   1.33
_refine_ls_restrained_S_gt       ?
_refine_ls_restrained_S_all      ?
_refine_ls_number_parameters     38
_refine_ls_number_restraints     0
_refine_ls_number_constraints    0
_refine_ls_weighting_scheme      sigma
_refine_ls_weighting_details     ?
_refine_ls_hydrogen_treatment    ?
_refine_ls_shift/su_max          0.0715
_refine_ls_shift/su_mean         0.0023
_refine_diff_density_max         ?
_refine_diff_density_min         ?
_refine_ls_extinction_method     ?
_refine_ls_extinction_coef       ?

_pd_proc_2theta_range_min        2.002
_pd_proc_2theta_range_max        19.998
_pd_proc_2theta_range_inc        0.002
_pd_proc_wavelength              ?

_pd_block_diffractogram_id       ?

loop_
_pd_proc_info_excluded_regions
'from 0.5 to 2.000'
'from 20 to 26.020'
_pd_proc_info_data_reduction     ?

loop_
_atom_type_symbol
_atom_type_scat_dispersion_real
_atom_type_scat_dispersion_imag
_atom_type_scat_source
Cs -1.4654 0.8159 'International Tables Vol C tables 4.2.6.8 and 6.1.1.1'
I -1.8899 0.6972 'International Tables Vol C tables 4.2.6.8 and 6.1.1.1'
Pb -0.6121 4.2687 'International Tables Vol C tables 4.2.6.8 and 6.1.1.1'

_computing_data_collection       ?
_computing_cell_refinement       ?
_computing_data_reduction        ?
_computing_structure_solution    ?
_computing_structure_refinement  ?
_computing_molecular_graphics    ?
_computing_publication_material  ?

#=======================================================================

# 9. ATOMIC COORDINATES AND DISPLACEMENT PARAMETERS

loop_
_atom_site_label
_atom_site_type_symbol
_atom_site_fract_x
_atom_site_fract_y
_atom_site_fract_z
_atom_site_adp_type
_atom_site_U_iso_or_equiv
_atom_site_symmetry_multiplicity
_atom_site_occupancy
_atom_site_calc_flag
_atom_site_refinement_flags
_atom_site_disorder_assembly
_atom_site_disorder_group
I1 I 0 0 0.5 Uani 0.184(2) 2 1 d . . .
I2 I -0.2120(3) 0.2880(3) 0 Uani 0.1517(19) 4 1 d . . .
Pb Pb 0 0 0 Uani 0.0564(8) 2 1 d . . .
Cs Cs -0.5 0 0.5 Uani 0.184(2) 2 1 d . . .

loop_
_atom_site_aniso_label
_atom_site_aniso_type_symbol
_atom_site_aniso_U_11
_atom_site_aniso_U_22
_atom_site_aniso_U_33
_atom_site_aniso_U_12
_atom_site_aniso_U_13
_atom_site_aniso_U_23
I1 I 0.257(4) 0.257(4) 0.039(4) 0 0 0
I2 I 0.109(2) 0.109(2) 0.237(5) 0.052(3) 0 0
Pb Pb 0.0621(12) 0.0621(12) 0.0449(18) 0 0 0
Cs Cs 0.203(4) 0.203(4) 0.146(5) 0.089(6) 0 0

loop_
_jana_atom_site_ADP_C_label
_jana_atom_site_ADP_C_type_symbol
_jana_atom_site_ADP_C_111
_jana_atom_site_ADP_C_112
_jana_atom_site_ADP_C_113
_jana_atom_site_ADP_C_122
_jana_atom_site_ADP_C_123
_jana_atom_site_ADP_C_133
_jana_atom_site_ADP_C_222
_jana_atom_site_ADP_C_223
_jana_atom_site_ADP_C_233
_jana_atom_site_ADP_C_333
? ? ? ? ? ? ? ? ? ? ? ?

loop_
_jana_atom_site_ADP_D_label
_jana_atom_site_ADP_D_type_symbol
_jana_atom_site_ADP_D_1111
_jana_atom_site_ADP_D_1112
_jana_atom_site_ADP_D_1113
_jana_atom_site_ADP_D_1122
_jana_atom_site_ADP_D_1123
_jana_atom_site_ADP_D_1133
_jana_atom_site_ADP_D_1222
_jana_atom_site_ADP_D_1223
_jana_atom_site_ADP_D_1233
_jana_atom_site_ADP_D_1333
_jana_atom_site_ADP_D_2222
_jana_atom_site_ADP_D_2223
_jana_atom_site_ADP_D_2233
_jana_atom_site_ADP_D_2333
_jana_atom_site_ADP_D_3333
? ? ? ? ? ? ? ? ? ? ? ? ? ? ? ? ?

loop_
_jana_atom_site_ADP_E_label
_jana_atom_site_ADP_E_type_symbol
_jana_atom_site_ADP_E_11111
_jana_atom_site_ADP_E_11112
_jana_atom_site_ADP_E_11113
_jana_atom_site_ADP_E_11122
_jana_atom_site_ADP_E_11123
_jana_atom_site_ADP_E_11133
_jana_atom_site_ADP_E_11222
_jana_atom_site_ADP_E_11223
_jana_atom_site_ADP_E_11233
_jana_atom_site_ADP_E_11333
_jana_atom_site_ADP_E_12222
_jana_atom_site_ADP_E_12223
_jana_atom_site_ADP_E_12233
_jana_atom_site_ADP_E_12333
_jana_atom_site_ADP_E_13333
_jana_atom_site_ADP_E_22222
_jana_atom_site_ADP_E_22223
_jana_atom_site_ADP_E_22233
_jana_atom_site_ADP_E_22333
_jana_atom_site_ADP_E_23333
_jana_atom_site_ADP_E_33333
? ? ? ? ? ? ? ? ? ? ? ? ? ? ? ? ? ? ? ? ? ? ?

loop_
_jana_atom_site_ADP_F_label
_jana_atom_site_ADP_F_type_symbol
_jana_atom_site_ADP_F_111111
_jana_atom_site_ADP_F_111112
_jana_atom_site_ADP_F_111113
_jana_atom_site_ADP_F_111122
_jana_atom_site_ADP_F_111123
_jana_atom_site_ADP_F_111133
_jana_atom_site_ADP_F_111222
_jana_atom_site_ADP_F_111223
_jana_atom_site_ADP_F_111233
_jana_atom_site_ADP_F_111333
_jana_atom_site_ADP_F_112222
_jana_atom_site_ADP_F_112223
_jana_atom_site_ADP_F_112233
_jana_atom_site_ADP_F_112333
_jana_atom_site_ADP_F_113333
_jana_atom_site_ADP_F_122222
_jana_atom_site_ADP_F_122223
_jana_atom_site_ADP_F_122233
_jana_atom_site_ADP_F_122333
_jana_atom_site_ADP_F_123333
_jana_atom_site_ADP_F_133333
_jana_atom_site_ADP_F_222222
_jana_atom_site_ADP_F_222223
_jana_atom_site_ADP_F_222233
_jana_atom_site_ADP_F_222333
_jana_atom_site_ADP_F_223333
_jana_atom_site_ADP_F_233333
_jana_atom_site_ADP_F_333333
? ? ? ? ? ? ? ? ? ? ? ? ? ? ? ? ? ? ? ? ? ? ? ? ? ? ? ? ? ?


#=======================================================================

# 10. MOLECULAR GEOMETRY


loop_
_geom_bond_atom_site_label_1
_geom_bond_atom_site_label_2
_geom_bond_site_symmetry_1
_geom_bond_site_symmetry_2
_geom_bond_distance
_geom_bond_publ_flag
? ? ? ? ? ?

loop_
_geom_angle_atom_site_label_1
_geom_angle_atom_site_label_2
_geom_angle_atom_site_label_3
_geom_angle_site_symmetry_1
_geom_angle_site_symmetry_2
_geom_angle_site_symmetry_3
_geom_angle
_geom_angle_publ_flag
? ? ? ? ? ? ? ?

loop_
_geom_torsion_atom_site_label_1
_geom_torsion_atom_site_label_2
_geom_torsion_atom_site_label_3
_geom_torsion_atom_site_label_4
_geom_torsion_site_symmetry_1
_geom_torsion_site_symmetry_2
_geom_torsion_site_symmetry_3
_geom_torsion_site_symmetry_4
_geom_torsion
_geom_torsion_publ_flag
? ? ? ? ? ? ? ? ? ?

loop_
_geom_hbond_atom_site_label_D
_geom_hbond_atom_site_label_H
_geom_hbond_atom_site_label_A
_geom_hbond_site_symmetry_D
_geom_hbond_site_symmetry_H
_geom_hbond_site_symmetry_A
_geom_hbond_distance_DH
_geom_hbond_distance_HA
_geom_hbond_distance_DA
_geom_hbond_angle_DHA
_geom_hbond_publ_flag
? ? ? ? ? ? ? ? ? ? ?


#=======================================================================

# 11. POWDER PROFILE

loop_
_pd_proc_point_id
_pd_proc_2theta_corrected
_pd_proc_intensity_net
_pd_calc_intensity_net
_pd_proc_ls_weight
1 2.0020 48.98 47.57 6.94
2 2.0040 56.47 47.72 7.45
3 2.0060 51.68 47.87 7.12
4 2.0080 38.98 48.01 6.19
5 2.0100 44.75 48.15 6.63
6 2.0120 55.25 48.29 7.38
7 2.0140 54.24 48.43 7.30
8 2.0160 56.67 48.56 7.47
9 2.0180 55.14 48.69 7.37
10 2.0200 50.74 48.82 7.07
11 2.0220 56.70 48.94 7.47
12 2.0240 56.01 49.06 7.42
13 2.0260 42.33 49.18 6.44
14 2.0280 60.14 49.30 7.68
15 2.0300 53.67 49.42 7.26
16 2.0320 43.54 49.53 6.55
17 2.0340 48.57 49.64 6.92
18 2.0360 51.03 49.75 7.09
19 2.0380 57.84 49.85 7.55
20 2.0400 49.29 49.96 6.97
21 2.0420 49.15 50.06 6.97
22 2.0440 53.89 50.16 7.30
23 2.0460 56.21 50.26 7.45
24 2.0480 53.97 50.35 7.30
25 2.0500 48.51 50.44 6.92
26 2.0520 47.26 50.53 6.82
27 2.0540 55.17 50.62 7.34
28 2.0560 64.58 50.71 7.97
29 2.0580 61.64 50.79 7.78
30 2.0600 53.80 50.88 7.28
31 2.0620 49.40 50.96 6.97
32 2.0640 50.40 51.04 7.05
33 2.0660 61.50 51.11 7.77
34 2.0680 45.67 51.19 6.69
35 2.0700 39.15 51.26 6.21
36 2.0720 55.95 51.34 7.41
37 2.0740 50.92 51.41 7.08
38 2.0760 50.27 51.47 7.03
39 2.0780 36.05 51.54 5.91
40 2.0800 46.99 51.61 6.80
41 2.0820 52.16 51.67 7.16
42 2.0840 54.86 51.73 7.36
43 2.0860 44.79 51.79 6.64
44 2.0880 49.00 51.85 6.94
45 2.0900 60.61 51.91 7.67
46 2.0920 60.62 51.97 7.70
47 2.0940 59.55 52.02 7.64
48 2.0960 53.04 52.07 7.22
49 2.0980 54.83 52.13 7.36
50 2.1000 54.80 52.18 7.35
51 2.1020 53.72 52.22 7.28
52 2.1040 54.42 52.27 7.33
53 2.1060 46.49 52.32 6.76
54 2.1080 47.56 52.36 6.82
55 2.1100 50.49 52.41 7.05
56 2.1120 52.62 52.45 7.20
57 2.1140 62.12 52.49 7.83
58 2.1160 56.39 52.53 7.42
59 2.1180 38.64 52.57 6.16
60 2.1200 45.65 52.61 6.70
61 2.1220 49.44 52.65 6.98
62 2.1240 58.53 52.68 7.59
63 2.1260 48.79 52.72 6.92
64 2.1280 53.19 52.75 7.24
65 2.1300 46.23 52.78 6.75
66 2.1320 46.01 52.81 6.71
67 2.1340 58.42 52.85 7.59
68 2.1360 53.24 52.88 7.23
69 2.1380 42.34 52.90 6.44
70 2.1400 46.90 52.93 6.79
71 2.1420 57.22 52.96 7.51
72 2.1440 58.48 52.98 7.58
73 2.1460 51.57 53.01 7.12
74 2.1480 53.57 53.03 7.27
75 2.1500 50.42 53.06 7.05
76 2.1520 54.37 53.08 7.31
77 2.1540 49.53 53.10 6.98
78 2.1560 58.43 53.12 7.59
79 2.1580 55.93 53.14 7.41
80 2.1600 51.22 53.16 7.09
81 2.1620 49.48 53.18 6.97
82 2.1640 61.49 53.20 7.76
83 2.1660 47.91 53.22 6.83
84 2.1680 44.88 53.23 6.64
85 2.1700 47.74 53.25 6.86
86 2.1720 48.36 53.27 6.90
87 2.1740 49.80 53.28 7.01
88 2.1760 50.83 53.29 7.07
89 2.1780 45.60 53.31 6.67
90 2.1800 37.58 53.32 6.07
91 2.1820 48.62 53.33 6.90
92 2.1840 48.90 53.35 6.93
93 2.1860 57.33 53.36 7.50
94 2.1880 57.49 53.37 7.51
95 2.1900 58.59 53.38 7.60
96 2.1920 49.82 53.39 7.00
97 2.1940 55.90 53.40 7.39
98 2.1960 49.92 53.41 6.99
99 2.1980 58.97 53.41 7.61
100 2.2000 64.89 53.42 7.97
101 2.2020 61.22 53.43 7.74
102 2.2040 54.52 53.44 7.30
103 2.2060 63.92 53.44 7.90
104 2.2080 46.76 53.45 6.77
105 2.2100 42.06 53.46 6.44
106 2.2120 43.77 53.46 6.56
107 2.2140 51.52 53.47 7.12
108 2.2160 55.58 53.47 7.38
109 2.2180 54.35 53.48 7.31
110 2.2200 47.94 53.48 6.86
111 2.2220 67.71 53.49 8.09
112 2.2240 54.17 53.49 7.28
113 2.2260 44.20 53.49 6.57
114 2.2280 49.78 53.50 6.98
115 2.2300 55.77 53.50 7.41
116 2.2320 51.26 53.50 7.10
117 2.2340 56.83 53.50 7.45
118 2.2360 54.82 53.51 7.33
119 2.2380 49.76 53.51 6.99
120 2.2400 55.23 53.51 7.37
121 2.2420 53.83 53.51 7.28
122 2.2440 48.38 53.51 6.90
123 2.2460 55.25 53.51 7.35
124 2.2480 62.41 53.52 7.83
125 2.2500 50.81 53.52 7.06
126 2.2520 33.90 53.52 5.75
127 2.2540 43.58 53.52 6.53
128 2.2560 48.85 53.52 6.91
129 2.2580 55.03 53.52 7.35
130 2.2600 44.68 53.52 6.62
131 2.2620 51.25 53.52 7.11
132 2.2640 59.59 53.52 7.65
133 2.2660 53.28 53.52 7.24
134 2.2680 43.68 53.52 6.54
135 2.2700 57.39 53.52 7.49
136 2.2720 56.69 53.52 7.45
137 2.2740 53.11 53.52 7.22
138 2.2760 45.13 53.52 6.66
139 2.2780 48.89 53.52 6.93
140 2.2800 56.56 53.52 7.45
141 2.2820 55.39 53.52 7.37
142 2.2840 54.40 53.52 7.30
143 2.2860 61.40 53.52 7.78
144 2.2880 58.40 53.51 7.58
145 2.2900 57.21 53.51 7.50
146 2.2920 45.69 53.51 6.68
147 2.2940 48.61 53.51 6.89
148 2.2960 51.41 53.51 7.10
149 2.2980 50.22 53.51 7.01
150 2.3000 54.54 53.51 7.31
151 2.3020 53.12 53.51 7.21
152 2.3040 51.05 53.51 7.08
153 2.3060 53.05 53.51 7.22
154 2.3080 55.81 53.51 7.41
155 2.3100 60.47 53.51 7.71
156 2.3120 60.27 53.51 7.70
157 2.3140 60.32 53.51 7.71
158 2.3160 51.41 53.51 7.11
159 2.3180 52.26 53.51 7.18
160 2.3200 52.18 53.51 7.18
161 2.3220 55.72 53.51 7.41
162 2.3240 60.42 53.51 7.71
163 2.3260 70.12 53.51 8.29
164 2.3280 61.43 53.51 7.74
165 2.3300 52.93 53.51 7.21
166 2.3320 59.11 53.51 7.61
167 2.3340 60.73 53.51 7.73
168 2.3360 51.93 53.51 7.15
169 2.3380 49.78 53.52 7.00
170 2.3400 56.45 53.52 7.45
171 2.3420 60.00 53.52 7.68
172 2.3440 61.11 53.52 7.75
173 2.3460 49.22 53.52 6.95
174 2.3480 54.62 53.52 7.31
175 2.3500 58.34 53.52 7.57
176 2.3520 53.19 53.53 7.23
177 2.3540 57.96 53.53 7.50
178 2.3560 51.06 53.53 7.05
179 2.3580 51.38 53.53 7.10
180 2.3600 52.67 53.54 7.18
181 2.3620 56.31 53.54 7.45
182 2.3640 57.72 53.54 7.53
183 2.3660 62.04 53.55 7.81
184 2.3680 62.80 53.55 7.85
185 2.3700 61.36 53.55 7.76
186 2.3720 65.37 53.56 8.02
187 2.3740 57.62 53.56 7.53
188 2.3760 58.33 53.56 7.57
189 2.3780 54.30 53.57 7.31
190 2.3800 55.07 53.57 7.35
191 2.3820 59.50 53.58 7.66
192 2.3840 59.40 53.58 7.64
193 2.3860 54.17 53.59 7.30
194 2.3880 59.73 53.59 7.63
195 2.3900 49.01 53.60 6.90
196 2.3920 54.60 53.60 7.33
197 2.3940 52.85 53.61 7.21
198 2.3960 57.38 53.61 7.49
199 2.3980 57.75 53.62 7.51
200 2.4000 55.33 53.63 7.37
201 2.4020 59.66 53.63 7.65
202 2.4040 62.12 53.64 7.81
203 2.4060 51.16 53.65 7.07
204 2.4080 51.00 53.66 7.07
205 2.4100 59.39 53.66 7.64
206 2.4120 63.67 53.67 7.91
207 2.4140 58.03 53.68 7.55
208 2.4160 63.19 53.69 7.82
209 2.4180 48.16 53.69 6.83
210 2.4200 55.38 53.70 7.39
211 2.4220 57.95 53.71 7.55
212 2.4240 68.08 53.72 8.15
213 2.4260 57.84 53.73 7.50
214 2.4280 63.72 53.74 7.92
215 2.4300 54.35 53.75 7.32
216 2.4320 56.10 53.76 7.42
217 2.4340 53.77 53.77 7.27
218 2.4360 63.69 53.78 7.90
219 2.4380 52.82 53.79 7.19
220 2.4400 49.74 53.80 7.00
221 2.4420 59.91 53.81 7.65
222 2.4440 56.24 53.82 7.42
223 2.4460 53.42 53.83 7.23
224 2.4480 63.24 53.85 7.88
225 2.4500 59.15 53.86 7.62
226 2.4520 50.59 53.87 7.04
227 2.4540 48.51 53.88 6.89
228 2.4560 56.81 53.90 7.45
229 2.4580 57.93 53.91 7.54
230 2.4600 57.32 53.92 7.51
231 2.4620 47.01 53.94 6.78
232 2.4640 51.83 53.95 7.11
233 2.4660 59.52 53.96 7.66
234 2.4680 54.71 53.98 7.34
235 2.4700 68.13 53.99 8.18
236 2.4720 59.07 54.01 7.61
237 2.4740 59.21 54.02 7.62
238 2.4760 47.24 54.03 6.80
239 2.4780 57.13 54.05 7.45
240 2.4800 64.95 54.06 7.98
241 2.4820 52.86 54.08 7.20
242 2.4840 52.28 54.10 7.16
243 2.4860 53.45 54.11 7.25
244 2.4880 50.60 54.13 7.05
245 2.4900 45.88 54.15 6.70
246 2.4920 43.15 54.16 6.49
247 2.4940 51.47 54.18 7.12
248 2.4960 49.29 54.20 6.96
249 2.4980 64.44 54.21 7.94
250 2.5000 61.41 54.23 7.77
251 2.5020 63.12 54.25 7.86
252 2.5040 48.34 54.27 6.88
253 2.5060 55.86 54.28 7.39
254 2.5080 57.91 54.30 7.54
255 2.5100 58.55 54.32 7.59
256 2.5120 56.55 54.34 7.45
257 2.5140 59.37 54.36 7.62
258 2.5160 43.99 54.38 6.55
259 2.5180 42.11 54.40 6.39
260 2.5200 58.59 54.42 7.58
261 2.5220 54.90 54.44 7.34
262 2.5240 48.39 54.46 6.86
263 2.5260 53.77 54.48 7.28
264 2.5280 63.28 54.50 7.88
265 2.5300 64.77 54.52 7.98
266 2.5320 67.91 54.54 8.16
267 2.5340 45.01 54.56 6.62
268 2.5360 51.59 54.58 7.11
269 2.5380 61.57 54.60 7.77
270 2.5400 57.60 54.63 7.51
271 2.5420 58.61 54.65 7.59
272 2.5440 59.91 54.67 7.68
273 2.5460 56.05 54.69 7.43
274 2.5480 62.38 54.72 7.82
275 2.5500 62.78 54.74 7.86
276 2.5520 57.76 54.76 7.53
277 2.5540 46.56 54.78 6.75
278 2.5560 54.42 54.81 7.28
279 2.5580 52.24 54.83 7.14
280 2.5600 62.12 54.85 7.82
281 2.5620 63.05 54.88 7.87
282 2.5640 52.83 54.90 7.20
283 2.5660 61.69 54.93 7.76
284 2.5680 54.40 54.95 7.30
285 2.5700 51.64 54.98 7.10
286 2.5720 40.79 55.00 6.31
287 2.5740 45.19 55.03 6.67
288 2.5760 52.42 55.05 7.16
289 2.5780 52.28 55.08 7.15
290 2.5800 64.19 55.10 7.93
291 2.5820 55.50 55.13 7.37
292 2.5840 54.28 55.15 7.31
293 2.5860 58.25 55.18 7.57
294 2.5880 53.54 55.20 7.25
295 2.5900 54.78 55.23 7.34
296 2.5920 62.99 55.26 7.85
297 2.5940 59.94 55.28 7.66
298 2.5960 50.17 55.31 7.01
299 2.5980 46.99 55.34 6.79
300 2.6000 50.03 55.36 7.01
301 2.6020 53.09 55.39 7.22
302 2.6040 50.31 55.42 7.02
303 2.6060 54.50 55.45 7.32
304 2.6080 61.32 55.47 7.76
305 2.6100 57.80 55.50 7.54
306 2.6120 64.89 55.53 7.98
307 2.6140 50.92 55.56 7.05
308 2.6160 55.05 55.59 7.33
309 2.6180 58.93 55.61 7.60
310 2.6200 55.27 55.64 7.36
311 2.6220 58.93 55.67 7.61
312 2.6240 62.51 55.70 7.84
313 2.6260 59.20 55.73 7.63
314 2.6280 59.37 55.76 7.64
315 2.6300 59.31 55.79 7.64
316 2.6320 49.20 55.82 6.96
317 2.6340 64.34 55.84 7.91
318 2.6360 63.11 55.87 7.87
319 2.6380 64.68 55.90 7.97
320 2.6400 57.13 55.93 7.47
321 2.6420 47.82 55.96 6.82
322 2.6440 58.36 55.99 7.57
323 2.6460 53.24 56.02 7.24
324 2.6480 57.28 56.05 7.48
325 2.6500 53.72 56.08 7.24
326 2.6520 57.43 56.11 7.51
327 2.6540 49.11 56.14 6.95
328 2.6560 52.67 56.17 7.19
329 2.6580 52.90 56.21 7.20
330 2.6600 60.01 56.24 7.69
331 2.6620 54.29 56.27 7.30
332 2.6640 51.13 56.30 7.08
333 2.6660 56.77 56.33 7.47
334 2.6680 66.83 56.36 8.11
335 2.6700 64.69 56.39 7.98
336 2.6720 67.83 56.42 8.16
337 2.6740 59.26 56.45 7.62
338 2.6760 57.11 56.48 7.48
339 2.6780 54.74 56.52 7.32
340 2.6800 58.48 56.55 7.57
341 2.6820 45.35 56.58 6.67
342 2.6840 51.70 56.61 7.12
343 2.6860 57.62 56.64 7.52
344 2.6880 52.93 56.67 7.21
345 2.6900 47.37 56.71 6.82
346 2.6920 57.85 56.74 7.53
347 2.6940 52.67 56.77 7.19
348 2.6960 59.80 56.80 7.66
349 2.6980 57.64 56.83 7.52
350 2.7000 54.25 56.87 7.30
351 2.7020 55.23 56.90 7.35
352 2.7040 58.34 56.93 7.57
353 2.7060 63.13 56.96 7.87
354 2.7080 54.18 57.00 7.27
355 2.7100 70.63 57.03 8.32
356 2.7120 54.63 57.06 7.31
357 2.7140 54.60 57.09 7.33
358 2.7160 54.90 57.13 7.35
359 2.7180 68.52 57.16 8.19
360 2.7200 64.13 57.19 7.93
361 2.7220 50.15 57.22 7.00
362 2.7240 57.62 57.26 7.51
363 2.7260 48.09 57.29 6.87
364 2.7280 46.50 57.32 6.75
365 2.7300 50.26 57.36 6.99
366 2.7320 60.31 57.39 7.71
367 2.7340 58.97 57.42 7.61
368 2.7360 54.58 57.45 7.31
369 2.7380 61.78 57.49 7.76
370 2.7400 64.09 57.52 7.91
371 2.7420 58.60 57.55 7.56
372 2.7440 63.84 57.59 7.92
373 2.7460 60.29 57.62 7.70
374 2.7480 57.68 57.65 7.53
375 2.7500 57.99 57.68 7.55
376 2.7520 56.17 57.72 7.43
377 2.7540 61.33 57.75 7.77
378 2.7560 50.10 57.78 7.01
379 2.7580 48.88 57.82 6.93
380 2.7600 55.68 57.85 7.38
381 2.7620 61.62 57.88 7.77
382 2.7640 51.06 57.92 7.07
383 2.7660 69.32 57.95 8.23
384 2.7680 56.88 57.98 7.44
385 2.7700 41.46 58.02 6.38
386 2.7720 57.80 58.05 7.52
387 2.7740 60.25 58.08 7.69
388 2.7760 47.86 58.11 6.84
389 2.7780 57.60 58.15 7.53
390 2.7800 62.10 58.18 7.80
391 2.7820 56.89 58.21 7.47
392 2.7840 56.20 58.25 7.42
393 2.7860 59.37 58.28 7.63
394 2.7880 62.51 58.31 7.82
395 2.7900 53.40 58.35 7.22
396 2.7920 57.74 58.38 7.54
397 2.7940 59.91 58.41 7.67
398 2.7960 55.62 58.44 7.39
399 2.7980 57.42 58.48 7.50
400 2.8000 53.33 58.51 7.23
401 2.8020 51.76 58.54 7.13
402 2.8040 57.81 58.58 7.51
403 2.8060 51.90 58.61 7.13
404 2.8080 54.02 58.64 7.27
405 2.8100 48.05 58.67 6.84
406 2.8120 68.73 58.71 8.21
407 2.8140 62.95 58.74 7.83
408 2.8160 53.80 58.77 7.23
409 2.8180 70.11 58.80 8.30
410 2.8200 59.79 58.84 7.66
411 2.8220 61.90 58.87 7.79
412 2.8240 62.28 58.90 7.82
413 2.8260 55.70 58.93 7.39
414 2.8280 59.27 58.96 7.63
415 2.8300 55.37 59.00 7.38
416 2.8320 57.01 59.03 7.47
417 2.8340 56.01 59.06 7.40
418 2.8360 58.38 59.09 7.58
419 2.8380 51.18 59.13 7.09
420 2.8400 52.91 59.16 7.20
421 2.8420 58.14 59.19 7.55
422 2.8440 40.95 59.22 6.32
423 2.8460 51.94 59.25 7.15
424 2.8480 50.75 59.28 7.05
425 2.8500 42.32 59.32 6.45
426 2.8520 53.92 59.35 7.27
427 2.8540 60.89 59.38 7.74
428 2.8560 60.79 59.41 7.71
429 2.8580 46.93 59.44 6.78
430 2.8600 53.82 59.47 7.27
431 2.8620 56.27 59.50 7.44
432 2.8640 55.87 59.53 7.42
433 2.8660 62.87 59.57 7.87
434 2.8680 59.53 59.60 7.65
435 2.8700 59.17 59.63 7.62
436 2.8720 61.65 59.66 7.77
437 2.8740 48.79 59.69 6.92
438 2.8760 58.93 59.72 7.60
439 2.8780 58.10 59.75 7.55
440 2.8800 71.29 59.78 8.35
441 2.8820 60.88 59.81 7.72
442 2.8840 57.43 59.84 7.51
443 2.8860 60.23 59.87 7.70
444 2.8880 63.32 59.90 7.88
445 2.8900 56.61 59.93 7.45
446 2.8920 56.37 59.96 7.45
447 2.8940 64.81 59.99 7.97
448 2.8960 67.02 60.02 8.11
449 2.8980 52.12 60.05 7.14
450 2.9000 57.52 60.08 7.50
451 2.9020 61.33 60.11 7.76
452 2.9040 62.52 60.14 7.84
453 2.9060 61.46 60.17 7.78
454 2.9080 75.22 60.20 8.58
455 2.9100 65.45 60.23 8.01
456 2.9120 54.54 60.26 7.31
457 2.9140 66.83 60.29 8.11
458 2.9160 63.34 60.32 7.89
459 2.9180 57.42 60.34 7.51
460 2.9200 55.83 60.37 7.41
461 2.9220 54.30 60.40 7.29
462 2.9240 69.36 60.43 8.25
463 2.9260 74.98 60.46 8.56
464 2.9280 65.75 60.49 8.02
465 2.9300 67.23 60.51 8.12
466 2.9320 56.65 60.54 7.45
467 2.9340 62.14 60.57 7.78
468 2.9360 72.31 60.60 8.40
469 2.9380 58.63 60.63 7.57
470 2.9400 63.94 60.65 7.91
471 2.9420 55.47 60.68 7.36
472 2.9440 54.03 60.71 7.29
473 2.9460 58.97 60.74 7.59
474 2.9480 64.26 60.76 7.96
475 2.9500 69.74 60.79 8.29
476 2.9520 63.87 60.82 7.93
477 2.9540 68.38 60.84 8.19
478 2.9560 64.09 60.87 7.94
479 2.9580 60.85 60.90 7.73
480 2.9600 56.24 60.92 7.42
481 2.9620 65.74 60.95 8.04
482 2.9640 57.49 60.98 7.51
483 2.9660 55.42 61.00 7.36
484 2.9680 63.46 61.03 7.90
485 2.9700 59.99 61.06 7.68
486 2.9720 58.15 61.08 7.57
487 2.9740 69.74 61.11 8.27
488 2.9760 71.71 61.13 8.40
489 2.9780 68.83 61.16 8.23
490 2.9800 68.76 61.18 8.23
491 2.9820 68.15 61.21 8.18
492 2.9840 64.86 61.23 7.98
493 2.9860 69.04 61.26 8.23
494 2.9880 60.42 61.28 7.68
495 2.9900 52.71 61.31 7.19
496 2.9920 51.02 61.33 7.07
497 2.9940 55.58 61.36 7.39
498 2.9960 57.96 61.38 7.54
499 2.9980 59.97 61.41 7.68
500 3.0000 63.92 61.43 7.93
501 3.0020 67.48 61.45 8.14
502 3.0040 65.61 61.48 8.04
503 3.0060 69.52 61.50 8.25
504 3.0080 59.91 61.53 7.66
505 3.0100 60.11 61.55 7.69
506 3.0120 58.33 61.57 7.57
507 3.0140 74.06 61.60 8.52
508 3.0160 63.32 61.62 7.88
509 3.0180 72.20 61.64 8.42
510 3.0200 62.87 61.67 7.85
511 3.0220 71.61 61.69 8.35
512 3.0240 47.63 61.71 6.76
513 3.0260 68.50 61.73 8.21
514 3.0280 81.69 61.76 8.94
515 3.0300 66.40 61.78 8.06
516 3.0320 55.61 61.80 7.39
517 3.0340 61.94 61.82 7.82
518 3.0360 68.51 61.85 8.20
519 3.0380 66.75 61.87 8.09
520 3.0400 74.74 61.89 8.57
521 3.0420 62.26 61.91 7.82
522 3.0440 63.55 61.93 7.90
523 3.0460 66.85 61.95 8.09
524 3.0480 59.88 61.97 7.66
525 3.0500 61.04 62.00 7.75
526 3.0520 56.34 62.02 7.44
527 3.0540 59.85 62.04 7.67
528 3.0560 63.27 62.06 7.87
529 3.0580 66.44 62.08 8.09
530 3.0600 64.51 62.10 7.97
531 3.0620 60.13 62.12 7.69
532 3.0640 58.11 62.14 7.56
533 3.0660 52.22 62.16 7.16
534 3.0680 65.31 62.18 8.00
535 3.0700 66.68 62.20 8.10
536 3.0720 71.93 62.22 8.41
537 3.0740 66.08 62.24 8.06
538 3.0760 54.33 62.26 7.29
539 3.0780 51.76 62.28 7.12
540 3.0800 53.79 62.30 7.27
541 3.0820 62.57 62.32 7.85
542 3.0840 61.38 62.34 7.77
543 3.0860 60.75 62.35 7.74
544 3.0880 56.19 62.37 7.44
545 3.0900 66.38 62.39 8.07
546 3.0920 63.56 62.41 7.89
547 3.0940 50.59 62.43 7.04
548 3.0960 60.59 62.45 7.70
549 3.0980 62.32 62.47 7.83
550 3.1000 55.55 62.48 7.39
551 3.1020 57.00 62.50 7.48
552 3.1040 52.67 62.52 7.19
553 3.1060 61.67 62.54 7.77
554 3.1080 50.13 62.55 7.01
555 3.1100 73.29 62.57 8.44
556 3.1120 66.32 62.59 8.06
557 3.1140 56.48 62.61 7.45
558 3.1160 55.41 62.62 7.37
559 3.1180 58.86 62.64 7.61
560 3.1200 62.70 62.66 7.86
561 3.1220 61.88 62.67 7.80
562 3.1240 60.44 62.69 7.71
563 3.1260 61.73 62.71 7.78
564 3.1280 67.46 62.72 8.12
565 3.1300 59.85 62.74 7.64
566 3.1320 65.94 62.76 8.05
567 3.1340 59.41 62.77 7.65
568 3.1360 61.84 62.79 7.80
569 3.1380 59.63 62.80 7.64
570 3.1400 59.65 62.82 7.63
571 3.1420 56.63 62.84 7.36
572 3.1440 61.60 62.85 7.78
573 3.1460 68.64 62.87 8.19
574 3.1480 64.97 62.88 7.99
575 3.1500 56.67 62.90 7.46
576 3.1520 60.74 62.91 7.71
577 3.1540 73.15 62.93 8.48
578 3.1560 66.10 62.94 8.06
579 3.1580 62.81 62.96 7.87
580 3.1600 74.15 62.97 8.53
581 3.1620 77.26 62.99 8.72
582 3.1640 86.86 63.00 9.24
583 3.1660 82.38 63.02 9.00
584 3.1680 84.12 63.03 9.06
585 3.1700 101.35 63.04 10.00
586 3.1720 146.68 63.06 11.92
587 3.1740 193.53 63.07 13.78
588 3.1760 171.25 63.09 12.97
589 3.1780 151.53 63.10 12.18
590 3.1800 101.23 63.11 9.95
591 3.1820 63.79 63.13 7.89
592 3.1840 62.12 63.14 7.79
593 3.1860 75.31 63.15 8.61
594 3.1880 69.96 63.17 8.29
595 3.1900 55.04 63.18 7.36
596 3.1920 58.07 63.19 7.55
597 3.1940 55.74 63.21 7.40
598 3.1960 64.10 63.22 7.94
599 3.1980 72.44 63.23 8.44
600 3.2000 75.20 63.24 8.60
601 3.2020 74.66 63.26 8.57
602 3.2040 70.37 63.27 8.30
603 3.2060 53.08 63.28 7.22
604 3.2080 64.67 63.29 7.96
605 3.2100 71.41 63.31 8.37
606 3.2120 92.13 63.32 9.48
607 3.2140 87.66 63.33 9.27
608 3.2160 80.61 63.34 8.89
609 3.2180 99.87 63.35 9.90
610 3.2200 120.93 63.37 10.90
611 3.2220 133.60 63.38 11.47
612 3.2240 117.79 63.39 10.77
613 3.2260 94.50 63.40 9.64
614 3.2280 79.52 63.41 8.86
615 3.2300 79.87 63.42 8.87
616 3.2320 74.66 63.43 8.56
617 3.2340 65.36 63.45 8.02
618 3.2360 65.87 63.46 8.05
619 3.2380 72.53 63.47 8.45
620 3.2400 60.52 63.48 7.70
621 3.2420 54.80 63.49 7.34
622 3.2440 61.48 63.50 7.78
623 3.2460 62.22 63.51 7.81
624 3.2480 62.93 63.52 7.86
625 3.2500 59.29 63.53 7.63
626 3.2520 68.62 63.54 8.22
627 3.2540 67.28 63.55 8.14
628 3.2560 75.11 63.56 8.58
629 3.2580 63.28 63.57 7.88
630 3.2600 52.11 63.58 7.16
631 3.2620 58.77 63.60 7.58
632 3.2640 59.38 63.61 7.64
633 3.2660 67.07 63.62 8.11
634 3.2680 67.64 63.63 8.15
635 3.2700 68.29 63.64 8.19
636 3.2720 63.85 63.65 7.92
637 3.2740 59.21 63.65 7.63
638 3.2760 61.82 63.66 7.78
639 3.2780 65.43 63.67 8.02
640 3.2800 61.40 63.68 7.78
641 3.2820 58.56 63.69 7.59
642 3.2840 53.42 63.70 7.24
643 3.2860 50.89 63.71 7.06
644 3.2880 63.28 63.72 7.85
645 3.2900 70.58 63.73 8.33
646 3.2920 72.59 63.74 8.45
647 3.2940 59.92 63.75 7.67
648 3.2960 58.31 63.76 7.56
649 3.2980 71.31 63.77 8.36
650 3.3000 53.49 63.78 7.24
651 3.3020 54.41 63.79 7.31
652 3.3040 60.97 63.80 7.75
653 3.3060 60.13 63.81 7.69
654 3.3080 62.00 63.81 7.80
655 3.3100 59.10 63.82 7.61
656 3.3120 59.80 63.83 7.66
657 3.3140 57.01 63.84 7.49
658 3.3160 55.36 63.85 7.37
659 3.3180 67.07 63.86 8.11
660 3.3200 63.46 63.87 7.90
661 3.3220 66.03 63.88 8.05
662 3.3240 68.23 63.88 8.18
663 3.3260 57.35 63.89 7.48
664 3.3280 63.05 63.90 7.88
665 3.3300 62.97 63.91 7.87
666 3.3320 57.99 63.92 7.54
667 3.3340 61.86 63.93 7.78
668 3.3360 63.45 63.94 7.89
669 3.3380 64.83 63.95 7.96
670 3.3400 75.79 63.95 8.61
671 3.3420 53.53 63.96 7.22
672 3.3440 64.54 63.97 7.96
673 3.3460 56.03 63.98 7.41
674 3.3480 52.29 63.99 7.16
675 3.3500 65.05 64.00 8.00
676 3.3520 69.72 64.00 8.27
677 3.3540 61.14 64.01 7.74
678 3.3560 66.19 64.02 8.04
679 3.3580 58.87 64.03 7.60
680 3.3600 64.14 64.04 7.94
681 3.3620 64.09 64.05 7.94
682 3.3640 61.00 64.05 7.73
683 3.3660 49.90 64.06 6.97
684 3.3680 69.56 64.07 8.26
685 3.3700 59.09 64.08 7.61
686 3.3720 54.69 64.09 7.32
687 3.3740 53.56 64.10 7.25
688 3.3760 55.18 64.10 7.36
689 3.3780 57.29 64.11 7.49
690 3.3800 54.66 64.12 7.32
691 3.3820 56.29 64.13 7.42
692 3.3840 66.04 64.14 8.05
693 3.3860 60.99 64.14 7.74
694 3.3880 56.33 64.15 7.44
695 3.3900 69.20 64.16 8.24
696 3.3920 59.88 64.17 7.67
697 3.3940 60.22 64.18 7.69
698 3.3960 60.78 64.19 7.72
699 3.3980 62.67 64.19 7.85
700 3.4000 66.35 64.20 8.07
701 3.4020 68.33 64.21 8.19
702 3.4040 56.68 64.22 7.44
703 3.4060 66.15 64.23 8.06
704 3.4080 52.00 64.24 7.15
705 3.4100 63.66 64.24 7.88
706 3.4120 70.25 64.25 8.31
707 3.4140 60.36 64.26 7.70
708 3.4160 65.05 64.27 7.99
709 3.4180 58.67 64.28 7.59
710 3.4200 56.97 64.29 7.47
711 3.4220 67.40 64.30 8.14
712 3.4240 54.51 64.30 7.31
713 3.4260 67.32 64.31 8.12
714 3.4280 58.58 64.32 7.59
715 3.4300 58.16 64.33 7.58
716 3.4320 65.17 64.34 7.99
717 3.4340 62.62 64.35 7.83
718 3.4360 64.83 64.36 7.99
719 3.4380 60.71 64.37 7.73
720 3.4400 56.08 64.37 7.43
721 3.4420 59.94 64.38 7.67
722 3.4440 58.53 64.39 7.59
723 3.4460 65.47 64.40 8.00
724 3.4480 68.48 64.41 8.20
725 3.4500 53.26 64.42 7.23
726 3.4520 55.97 64.43 7.42
727 3.4540 59.96 64.44 7.67
728 3.4560 46.15 64.45 6.72
729 3.4580 61.77 64.46 7.77
730 3.4600 56.99 64.46 7.48
731 3.4620 51.45 64.47 7.07
732 3.4640 67.64 64.48 8.13
733 3.4660 57.34 64.49 7.49
734 3.4680 59.29 64.50 7.64
735 3.4700 51.67 64.51 7.13
736 3.4720 62.04 64.52 7.82
737 3.4740 66.24 64.53 8.08
738 3.4760 59.10 64.54 7.62
739 3.4780 53.51 64.55 7.25
740 3.4800 63.58 64.56 7.90
741 3.4820 56.69 64.57 7.45
742 3.4840 67.73 64.58 8.16
743 3.4860 53.80 64.59 7.27
744 3.4880 56.87 64.60 7.47
745 3.4900 55.33 64.61 7.37
746 3.4920 78.12 64.62 8.75
747 3.4940 69.04 64.63 8.21
748 3.4960 51.22 64.64 7.06
749 3.4980 61.32 64.65 7.78
750 3.5000 55.08 64.66 7.36
751 3.5020 51.08 64.67 7.09
752 3.5040 66.18 64.68 8.06
753 3.5060 69.40 64.70 8.25
754 3.5080 62.47 64.71 7.83
755 3.5100 60.07 64.72 7.68
756 3.5120 57.13 64.73 7.49
757 3.5140 65.18 64.74 7.98
758 3.5160 48.13 64.75 6.85
759 3.5180 69.56 64.76 8.24
760 3.5200 67.11 64.77 8.12
761 3.5220 67.49 64.78 8.14
762 3.5240 66.64 64.80 8.10
763 3.5260 69.21 64.81 8.24
764 3.5280 51.39 64.82 7.04
765 3.5300 70.55 64.83 8.30
766 3.5320 55.30 64.84 7.37
767 3.5340 49.22 64.86 6.94
768 3.5360 68.26 64.87 8.18
769 3.5380 64.84 64.88 7.97
770 3.5400 56.15 64.89 7.42
771 3.5420 53.42 64.90 7.22
772 3.5440 63.33 64.92 7.89
773 3.5460 70.85 64.93 8.33
774 3.5480 60.01 64.94 7.67
775 3.5500 69.96 64.95 8.29
776 3.5520 68.26 64.97 8.19
777 3.5540 58.87 64.98 7.60
778 3.5560 60.17 64.99 7.70
779 3.5580 62.93 65.01 7.86
780 3.5600 63.62 65.02 7.91
781 3.5620 62.04 65.03 7.80
782 3.5640 61.95 65.05 7.77
783 3.5660 71.72 65.06 8.40
784 3.5680 67.39 65.07 8.14
785 3.5700 76.28 65.09 8.65
786 3.5720 63.63 65.10 7.89
787 3.5740 66.71 65.12 8.10
788 3.5760 53.23 65.13 7.24
789 3.5780 64.35 65.15 7.93
790 3.5800 71.62 65.16 8.38
791 3.5820 62.73 65.18 7.80
792 3.5840 73.16 65.19 8.48
793 3.5860 54.83 65.20 7.34
794 3.5880 57.07 65.22 7.48
795 3.5900 52.89 65.24 7.21
796 3.5920 67.54 65.25 8.11
797 3.5940 52.03 65.27 7.12
798 3.5960 60.79 65.28 7.70
799 3.5980 65.96 65.30 8.05
800 3.6000 57.46 65.31 7.49
801 3.6020 70.87 65.33 8.34
802 3.6040 66.08 65.35 8.05
803 3.6060 63.63 65.36 7.91
804 3.6080 58.81 65.38 7.61
805 3.6100 70.70 65.39 8.31
806 3.6120 64.95 65.41 7.97
807 3.6140 50.56 65.43 7.01
808 3.6160 77.01 65.44 8.67
809 3.6180 68.46 65.46 8.19
810 3.6200 66.22 65.48 8.08
811 3.6220 65.85 65.50 8.04
812 3.6240 56.18 65.51 7.43
813 3.6260 62.43 65.53 7.83
814 3.6280 58.79 65.55 7.60
815 3.6300 71.52 65.57 8.37
816 3.6320 68.14 66.35 8.17
817 3.6340 79.64 66.39 8.84
818 3.6360 73.45 66.44 8.48
819 3.6380 74.31 66.48 8.54
820 3.6400 61.08 66.53 7.74
821 3.6420 62.17 66.57 7.82
822 3.6440 63.34 66.62 7.89
823 3.6460 60.41 66.67 7.70
824 3.6480 69.76 66.72 8.27
825 3.6500 78.13 66.78 8.77
826 3.6520 60.73 66.83 7.73
827 3.6540 78.33 66.89 8.75
828 3.6560 72.87 66.95 8.46
829 3.6580 70.54 67.02 8.34
830 3.6600 74.94 67.08 8.59
831 3.6620 60.21 67.15 7.69
832 3.6640 75.10 67.22 8.58
833 3.6660 68.12 68.67 8.18
834 3.6680 64.23 68.79 7.95
835 3.6700 73.03 68.91 8.48
836 3.6720 69.26 69.04 8.26
837 3.6740 60.60 69.18 7.73
838 3.6760 67.40 69.33 8.13
839 3.6780 62.97 69.48 7.83
840 3.6800 63.94 69.64 7.91
841 3.6820 58.31 69.81 7.56
842 3.6840 65.30 69.99 7.99
843 3.6860 68.12 70.18 8.17
844 3.6880 74.36 70.39 8.51
845 3.6900 80.01 70.60 8.86
846 3.6920 68.87 70.83 8.22
847 3.6940 76.70 71.08 8.68
848 3.6960 82.93 71.34 9.02
849 3.6980 70.83 71.62 8.34
850 3.7000 67.62 71.93 8.16
851 3.7020 61.60 72.25 7.79
852 3.7040 67.75 72.61 8.16
853 3.7060 65.40 72.99 8.02
854 3.7080 68.87 73.41 8.22
855 3.7100 84.99 73.86 9.13
856 3.7120 78.56 74.36 8.78
857 3.7140 68.79 74.91 8.22
858 3.7160 89.80 75.51 9.38
859 3.7180 85.22 76.18 9.15
860 3.7200 81.80 76.92 8.97
861 3.7220 80.30 77.76 8.88
862 3.7240 74.18 78.70 8.53
863 3.7260 69.09 79.76 8.22
864 3.7280 85.89 80.98 9.19
865 3.7300 81.28 82.37 8.93
866 3.7320 89.98 84.00 9.40
867 3.7340 87.98 85.90 9.29
868 3.7360 81.01 88.14 8.92
869 3.7380 82.73 90.84 8.99
870 3.7400 91.43 94.12 9.49
871 3.7420 91.13 98.18 9.47
872 3.7440 96.61 103.28 9.74
873 3.7460 94.87 109.86 9.65
874 3.7480 90.90 118.55 9.44
875 3.7500 117.89 130.43 10.76
876 3.7520 129.71 147.28 11.26
877 3.7540 165.54 172.48 12.73
878 3.7560 229.93 213.89 15.05
879 3.7580 321.84 295.58 17.69
880 3.7600 555.34 486.91 23.21
881 3.7620 1046.05 907.87 31.90
882 3.7640 1548.59 1566.11 38.99
883 3.7660 1651.80 1852.03 40.30
884 3.7680 1140.97 1294.42 33.35
885 3.7700 666.64 713.49 25.49
886 3.7720 400.84 405.17 19.78
887 3.7740 315.13 276.89 17.60
888 3.7760 270.11 223.64 16.30
889 3.7780 266.33 198.93 16.19
890 3.7800 252.24 188.45 15.76
891 3.7820 231.18 187.81 15.08
892 3.7840 253.26 196.06 15.73
893 3.7860 295.02 214.43 17.04
894 3.7880 295.29 246.92 17.04
895 3.7900 339.04 303.20 18.26
896 3.7920 434.89 412.15 20.65
897 3.7940 652.82 663.72 25.21
898 3.7960 1145.77 1253.06 33.35
899 3.7980 1995.78 2330.70 44.04
900 3.8000 3008.63 3279.16 54.37
901 3.8020 3202.95 2668.10 56.04
902 3.8040 1911.57 1497.81 42.89
903 3.8060 899.00 774.41 29.49
904 3.8080 477.52 450.08 21.53
905 3.8100 285.52 311.41 16.70
906 3.8120 193.78 240.67 13.78
907 3.8140 160.15 197.63 12.55
908 3.8160 141.99 169.00 11.82
909 3.8180 139.02 148.99 11.69
910 3.8200 133.19 134.46 11.45
911 3.8220 129.99 123.58 11.31
912 3.8240 112.20 115.24 10.49
913 3.8260 110.60 108.69 10.40
914 3.8280 87.78 103.46 9.24
915 3.8300 91.00 99.21 9.45
916 3.8320 77.88 95.72 8.74
917 3.8340 89.94 92.82 9.39
918 3.8360 86.98 90.37 9.23
919 3.8380 91.78 88.29 9.50
920 3.8400 81.62 86.51 8.96
921 3.8420 88.86 84.98 9.34
922 3.8440 79.31 83.65 8.83
923 3.8460 83.59 82.49 9.06
924 3.8480 75.82 81.47 8.63
925 3.8500 88.17 80.56 9.30
926 3.8520 67.98 79.77 8.16
927 3.8540 62.82 79.06 7.86
928 3.8560 73.29 78.42 8.48
929 3.8580 69.11 77.85 8.24
930 3.8600 81.35 77.34 8.92
931 3.8620 64.50 76.88 7.94
932 3.8640 69.42 76.47 8.26
933 3.8660 75.50 76.09 8.61
934 3.8680 67.67 75.75 8.15
935 3.8700 69.52 75.44 8.28
936 3.8720 78.03 75.16 8.75
937 3.8740 86.59 74.90 9.21
938 3.8760 79.14 74.67 8.81
939 3.8780 72.33 74.45 8.41
940 3.8800 63.44 74.26 7.87
941 3.8820 71.56 74.08 8.39
942 3.8840 69.39 73.92 8.25
943 3.8860 83.53 73.77 9.05
944 3.8880 73.89 73.63 8.51
945 3.8900 67.18 73.51 8.11
946 3.8920 80.21 73.39 8.87
947 3.8940 84.86 73.29 9.12
948 3.8960 87.24 73.19 9.26
949 3.8980 73.78 73.11 8.50
950 3.9000 71.75 72.27 8.38
951 3.9020 67.81 72.22 8.15
952 3.9040 72.07 72.18 8.40
953 3.9060 74.97 72.14 8.58
954 3.9080 71.88 72.11 8.39
955 3.9100 65.73 72.08 8.02
956 3.9120 78.02 72.05 8.75
957 3.9140 67.97 72.03 8.16
958 3.9160 65.27 72.01 8.00
959 3.9180 67.82 72.00 8.14
960 3.9200 79.73 71.99 8.86
961 3.9220 81.54 71.99 8.95
962 3.9240 76.95 71.98 8.69
963 3.9260 77.61 71.98 8.73
964 3.9280 76.72 71.98 8.69
965 3.9300 69.17 71.99 8.25
966 3.9320 67.48 71.99 8.14
967 3.9340 67.68 72.00 8.15
968 3.9360 60.00 70.67 7.68
969 3.9380 54.69 70.72 7.33
970 3.9400 65.98 70.78 8.02
971 3.9420 74.37 70.83 8.53
972 3.9440 74.08 70.88 8.52
973 3.9460 75.74 70.93 8.63
974 3.9480 73.92 70.99 8.52
975 3.9500 76.19 71.04 8.66
976 3.9520 63.94 71.09 7.89
977 3.9540 79.60 71.15 8.86
978 3.9560 74.16 71.20 8.53
979 3.9580 69.76 71.25 8.27
980 3.9600 85.47 71.31 9.16
981 3.9620 72.27 71.36 8.41
982 3.9640 63.07 71.42 7.87
983 3.9660 75.35 71.47 8.59
984 3.9680 73.16 71.53 8.47
985 3.9700 73.27 71.58 8.49
986 3.9720 76.80 71.64 8.68
987 3.9740 72.82 71.70 8.45
988 3.9760 64.97 71.75 7.99
989 3.9780 68.85 71.81 8.23
990 3.9800 75.38 71.87 8.61
991 3.9820 77.40 71.92 8.72
992 3.9840 75.60 71.98 8.62
993 3.9860 79.92 72.04 8.87
994 3.9880 75.42 72.10 8.60
995 3.9900 83.10 72.16 9.02
996 3.9920 71.08 72.22 8.35
997 3.9940 72.26 72.27 8.42
998 3.9960 70.45 72.33 8.30
999 3.9980 80.92 72.39 8.91
1000 4.0000 74.37 72.45 12.01
1001 4.0020 94.56 72.51 9.48
1002 4.0040 88.60 72.57 9.20
1003 4.0060 82.76 72.63 8.89
1004 4.0080 86.25 72.69 9.08
1005 4.0100 86.24 72.76 9.08
1006 4.0120 80.47 72.82 8.77
1007 4.0140 78.59 72.88 8.67
1008 4.0160 78.39 72.94 8.66
1009 4.0180 82.40 73.00 8.88
1010 4.0200 87.26 73.07 9.13
1011 4.0220 80.01 73.13 8.73
1012 4.0240 83.77 73.19 8.94
1013 4.0260 89.04 73.25 9.23
1014 4.0280 76.48 73.32 8.56
1015 4.0300 91.36 73.38 9.34
1016 4.0320 92.18 73.45 9.39
1017 4.0340 81.55 73.51 8.82
1018 4.0360 81.50 73.58 8.81
1019 4.0380 87.60 73.64 9.15
1020 4.0400 94.68 73.71 9.52
1021 4.0420 85.28 73.77 9.03
1022 4.0440 73.94 73.84 8.42
1023 4.0460 87.75 73.90 9.16
1024 4.0480 94.90 73.97 9.53
1025 4.0500 87.81 74.04 9.16
1026 4.0520 78.89 74.10 8.67
1027 4.0540 78.91 74.17 8.68
1028 4.0560 93.62 74.24 9.46
1029 4.0580 82.61 74.30 8.89
1030 4.0600 77.91 74.37 8.63
1031 4.0620 84.42 74.44 8.98
1032 4.0640 72.65 74.51 8.34
1033 4.0660 88.09 74.58 9.17
1034 4.0680 75.32 74.65 8.47
1035 4.0700 93.13 74.71 9.43
1036 4.0720 88.16 74.78 9.17
1037 4.0740 83.62 74.85 8.94
1038 4.0760 88.92 74.92 9.22
1039 4.0780 92.33 74.99 9.40
1040 4.0800 98.29 75.06 9.69
1041 4.0820 74.69 75.14 8.43
1042 4.0840 75.43 75.21 8.49
1043 4.0860 85.93 75.28 9.06
1044 4.0880 84.09 75.35 8.97
1045 4.0900 85.76 75.42 9.07
1046 4.0920 79.03 75.49 8.68
1047 4.0940 75.03 75.57 8.47
1048 4.0960 89.53 75.64 9.24
1049 4.0980 78.52 75.71 8.66
1050 4.1000 86.00 75.78 9.07
1051 4.1020 77.00 75.86 8.57
1052 4.1040 72.21 75.93 8.31
1053 4.1060 81.09 76.01 8.79
1054 4.1080 92.62 76.08 9.41
1055 4.1100 85.94 76.15 9.06
1056 4.1120 94.40 76.23 9.50
1057 4.1140 74.79 76.30 8.45
1058 4.1160 86.53 76.38 9.08
1059 4.1180 82.06 76.45 8.86
1060 4.1200 74.14 76.53 8.43
1061 4.1220 86.97 76.61 9.11
1062 4.1240 83.53 76.68 8.94
1063 4.1260 75.87 76.76 8.52
1064 4.1280 82.60 76.84 8.88
1065 4.1300 84.91 76.91 9.01
1066 4.1320 82.11 76.99 8.88
1067 4.1340 75.11 77.07 8.48
1068 4.1360 99.61 77.15 9.74
1069 4.1380 95.08 77.22 9.51
1070 4.1400 89.39 77.30 9.24
1071 4.1420 74.48 77.38 8.42
1072 4.1440 84.42 77.46 8.97
1073 4.1460 81.34 77.54 8.81
1074 4.1480 75.62 77.62 8.51
1075 4.1500 65.17 77.70 7.89
1076 4.1520 81.99 77.78 8.83
1077 4.1540 89.13 77.86 9.23
1078 4.1560 81.88 77.94 8.84
1079 4.1580 97.50 78.02 9.64
1080 4.1600 88.46 78.10 9.18
1081 4.1620 91.41 78.18 9.33
1082 4.1640 83.13 78.26 8.91
1083 4.1660 82.58 78.35 8.88
1084 4.1680 77.64 78.43 8.61
1085 4.1700 82.72 78.51 8.88
1086 4.1720 75.89 78.59 8.50
1087 4.1740 75.30 78.68 8.48
1088 4.1760 83.99 78.76 8.95
1089 4.1780 84.48 78.84 8.98
1090 4.1800 87.13 78.92 9.12
1091 4.1820 86.18 79.01 9.07
1092 4.1840 81.29 79.09 8.80
1093 4.1860 95.05 79.18 9.52
1094 4.1880 93.57 79.26 9.45
1095 4.1900 101.40 79.35 9.83
1096 4.1920 92.66 79.43 9.40
1097 4.1940 83.72 79.52 8.92
1098 4.1960 79.50 79.60 8.70
1099 4.1980 90.29 79.69 9.28
1100 4.2000 85.49 79.77 9.02
1101 4.2020 84.59 79.86 8.98
1102 4.2040 85.72 79.95 9.05
1103 4.2060 82.00 80.03 8.85
1104 4.2080 93.83 80.12 9.46
1105 4.2100 94.76 80.21 9.51
1106 4.2120 90.42 80.30 9.29
1107 4.2140 81.14 80.38 8.81
1108 4.2160 89.50 80.47 9.20
1109 4.2180 84.28 80.56 8.95
1110 4.2200 88.66 80.65 9.20
1111 4.2220 89.65 80.74 9.24
1112 4.2240 85.66 80.83 9.04
1113 4.2260 95.97 80.91 9.57
1114 4.2280 92.19 81.00 9.37
1115 4.2300 97.70 81.09 9.65
1116 4.2320 84.92 81.18 8.99
1117 4.2340 82.07 81.27 8.84
1118 4.2360 87.41 81.36 9.13
1119 4.2380 84.02 81.45 8.95
1120 4.2400 80.59 81.55 8.77
1121 4.2420 98.14 81.64 9.66
1122 4.2440 88.78 81.73 9.20
1123 4.2460 91.24 81.82 9.32
1124 4.2480 87.00 81.91 9.11
1125 4.2500 85.92 82.00 9.04
1126 4.2520 89.57 82.10 9.23
1127 4.2540 85.11 82.19 9.01
1128 4.2560 85.55 82.28 9.03
1129 4.2580 89.81 82.37 9.26
1130 4.2600 85.16 82.47 9.01
1131 4.2620 90.12 82.56 9.27
1132 4.2640 86.22 82.65 9.07
1133 4.2660 87.24 82.75 9.11
1134 4.2680 86.86 82.84 9.10
1135 4.2700 71.89 82.94 8.27
1136 4.2720 81.30 83.03 8.79
1137 4.2740 76.82 83.13 8.56
1138 4.2760 91.00 83.22 9.31
1139 4.2780 85.02 83.32 9.01
1140 4.2800 85.49 83.41 9.04
1141 4.2820 79.69 83.51 8.69
1142 4.2840 86.81 83.60 9.10
1143 4.2860 76.93 83.70 8.56
1144 4.2880 89.35 83.80 9.23
1145 4.2900 82.35 83.89 8.86
1146 4.2920 83.34 83.99 8.91
1147 4.2940 76.87 84.09 8.56
1148 4.2960 85.53 84.18 9.03
1149 4.2980 79.97 84.28 8.73
1150 4.3000 88.38 84.38 9.18
1151 4.3020 79.66 84.48 8.71
1152 4.3040 74.93 84.57 8.44
1153 4.3060 73.45 84.67 8.36
1154 4.3080 78.86 84.77 8.67
1155 4.3100 95.10 84.87 9.52
1156 4.3120 98.21 84.97 9.68
1157 4.3140 94.35 85.07 9.49
1158 4.3160 83.32 85.17 8.92
1159 4.3180 79.65 85.27 8.70
1160 4.3200 102.67 85.37 9.88
1161 4.3220 94.28 85.47 9.46
1162 4.3240 99.28 85.57 9.73
1163 4.3260 81.38 85.67 8.79
1164 4.3280 78.85 85.77 8.67
1165 4.3300 94.84 85.87 9.50
1166 4.3320 81.61 85.97 8.81
1167 4.3340 88.40 86.07 9.18
1168 4.3360 93.71 86.17 9.45
1169 4.3380 101.54 86.27 9.83
1170 4.3400 90.43 86.38 9.28
1171 4.3420 86.89 86.48 9.10
1172 4.3440 87.68 86.58 9.15
1173 4.3460 78.44 86.68 8.64
1174 4.3480 88.11 86.79 9.17
1175 4.3500 104.79 86.89 9.99
1176 4.3520 88.93 86.99 9.20
1177 4.3540 84.25 87.10 8.97
1178 4.3560 79.23 87.20 8.69
1179 4.3580 90.71 87.30 9.29
1180 4.3600 102.15 87.41 9.87
1181 4.3620 94.53 87.51 9.48
1182 4.3640 90.13 87.61 9.27
1183 4.3660 96.65 87.72 9.60
1184 4.3680 111.56 87.82 10.31
1185 4.3700 96.43 87.93 9.58
1186 4.3720 83.12 88.03 8.90
1187 4.3740 92.89 88.14 9.40
1188 4.3760 99.13 88.24 9.72
1189 4.3780 85.20 88.35 9.00
1190 4.3800 86.53 88.46 9.06
1191 4.3820 100.86 88.56 9.79
1192 4.3840 78.98 88.67 8.66
1193 4.3860 74.32 88.77 8.43
1194 4.3880 82.39 88.88 8.86
1195 4.3900 87.98 88.99 9.17
1196 4.3920 85.63 89.09 9.04
1197 4.3940 104.47 89.20 9.97
1198 4.3960 104.66 89.31 9.98
1199 4.3980 89.82 89.42 9.25
1200 4.4000 89.87 89.52 9.25
1201 4.4020 90.39 89.63 9.27
1202 4.4040 85.06 89.74 9.00
1203 4.4060 92.40 89.85 9.38
1204 4.4080 87.39 89.96 9.13
1205 4.4100 85.09 90.06 9.01
1206 4.4120 93.43 90.17 9.43
1207 4.4140 109.46 90.28 10.21
1208 4.4160 93.66 90.39 9.44
1209 4.4180 93.70 90.50 9.46
1210 4.4200 85.92 90.61 9.04
1211 4.4220 94.67 90.72 9.49
1212 4.4240 78.43 90.83 8.63
1213 4.4260 79.11 90.94 8.69
1214 4.4280 95.83 91.05 9.55
1215 4.4300 96.13 91.16 9.58
1216 4.4320 93.65 91.27 9.43
1217 4.4340 97.27 91.38 9.62
1218 4.4360 88.55 91.49 9.15
1219 4.4380 77.10 91.60 8.55
1220 4.4400 89.38 91.71 9.22
1221 4.4420 82.91 91.82 8.86
1222 4.4440 79.47 91.93 8.69
1223 4.4460 94.83 92.05 9.50
1224 4.4480 104.56 92.16 9.99
1225 4.4500 94.91 92.27 9.51
1226 4.4520 91.64 92.38 9.35
1227 4.4540 95.40 92.49 9.53
1228 4.4560 88.30 92.61 9.16
1229 4.4580 92.20 92.72 9.37
1230 4.4600 84.13 92.83 8.96
1231 4.4620 91.39 92.94 9.33
1232 4.4640 86.43 93.06 9.08
1233 4.4660 91.74 93.17 9.34
1234 4.4680 82.45 93.28 8.86
1235 4.4700 83.95 93.39 8.94
1236 4.4720 84.68 93.51 8.98
1237 4.4740 80.84 93.62 8.77
1238 4.4760 90.16 93.74 9.26
1239 4.4780 90.21 93.85 9.28
1240 4.4800 96.89 93.96 9.62
1241 4.4820 107.59 94.08 10.12
1242 4.4840 102.63 94.19 9.89
1243 4.4860 95.54 94.31 9.54
1244 4.4880 90.46 94.42 9.29
1245 4.4900 103.57 94.54 9.92
1246 4.4920 104.27 94.65 9.96
1247 4.4940 87.36 94.77 9.11
1248 4.4960 82.99 94.88 8.89
1249 4.4980 91.46 95.00 9.33
1250 4.5000 83.21 95.11 8.90
1251 4.5020 100.16 95.23 9.72
1252 4.5040 96.22 95.34 9.54
1253 4.5060 83.42 95.46 8.90
1254 4.5080 89.63 95.57 9.24
1255 4.5100 108.80 95.69 10.18
1256 4.5120 88.92 95.81 9.18
1257 4.5140 104.98 95.92 9.99
1258 4.5160 105.54 96.04 10.02
1259 4.5180 101.76 96.15 9.85
1260 4.5200 109.62 96.27 10.22
1261 4.5220 113.84 96.39 10.42
1262 4.5240 102.08 96.50 9.87
1263 4.5260 99.95 96.62 9.76
1264 4.5280 97.00 96.74 9.62
1265 4.5300 93.03 96.86 9.40
1266 4.5320 104.67 96.97 9.97
1267 4.5340 104.43 97.09 9.97
1268 4.5360 94.24 97.21 9.46
1269 4.5380 93.14 97.33 9.41
1270 4.5400 93.38 97.44 9.43
1271 4.5420 108.99 97.56 10.18
1272 4.5440 96.95 97.68 9.61
1273 4.5460 94.80 97.80 9.49
1274 4.5480 90.59 97.92 9.29
1275 4.5500 94.16 98.03 9.46
1276 4.5520 102.16 98.15 9.86
1277 4.5540 89.81 98.27 9.25
1278 4.5560 99.84 98.39 9.74
1279 4.5580 112.11 98.51 10.32
1280 4.5600 82.51 98.63 8.82
1281 4.5620 99.50 98.75 9.72
1282 4.5640 94.77 98.86 9.51
1283 4.5660 84.74 98.98 8.99
1284 4.5680 94.02 99.10 9.47
1285 4.5700 89.93 99.22 9.23
1286 4.5720 90.04 99.34 9.25
1287 4.5740 89.82 99.46 9.25
1288 4.5760 81.84 99.58 8.83
1289 4.5780 79.91 99.70 8.71
1290 4.5800 92.44 99.82 9.38
1291 4.5820 99.91 99.94 9.75
1292 4.5840 97.27 100.06 9.64
1293 4.5860 89.11 100.18 9.20
1294 4.5880 89.84 100.30 9.24
1295 4.5900 94.21 100.42 9.46
1296 4.5920 100.68 100.54 9.78
1297 4.5940 102.79 100.66 9.90
1298 4.5960 92.75 100.78 9.40
1299 4.5980 95.15 100.90 9.52
1300 4.6000 96.32 101.02 9.58
1301 4.6020 98.41 101.14 9.66
1302 4.6040 92.65 101.26 9.38
1303 4.6060 92.93 101.38 9.40
1304 4.6080 96.65 101.50 9.60
1305 4.6100 89.47 101.62 9.23
1306 4.6120 107.13 101.75 10.09
1307 4.6140 98.20 101.87 9.66
1308 4.6160 89.75 101.99 9.24
1309 4.6180 107.49 102.11 10.12
1310 4.6200 106.11 102.23 10.06
1311 4.6220 104.80 102.35 9.99
1312 4.6240 91.74 102.47 9.35
1313 4.6260 102.78 102.60 9.90
1314 4.6280 105.89 102.72 10.05
1315 4.6300 98.67 102.84 9.69
1316 4.6320 79.24 102.96 8.68
1317 4.6340 98.60 103.08 9.68
1318 4.6360 103.78 103.20 9.94
1319 4.6380 86.85 103.32 9.09
1320 4.6400 109.28 103.45 10.18
1321 4.6420 100.94 103.57 9.79
1322 4.6440 90.40 103.69 9.28
1323 4.6460 93.89 103.81 9.44
1324 4.6480 103.88 103.93 9.94
1325 4.6500 96.35 104.06 9.57
1326 4.6520 97.36 104.18 9.62
1327 4.6540 89.65 104.30 9.24
1328 4.6560 100.12 104.42 9.76
1329 4.6580 97.42 104.55 9.63
1330 4.6600 97.03 104.67 9.62
1331 4.6620 108.85 104.79 10.18
1332 4.6640 104.43 104.91 9.97
1333 4.6660 102.02 105.04 9.85
1334 4.6680 109.53 105.16 10.21
1335 4.6700 105.34 105.28 10.01
1336 4.6720 106.85 105.40 10.08
1337 4.6740 122.21 105.53 10.78
1338 4.6760 101.62 105.65 9.82
1339 4.6780 96.94 105.77 9.60
1340 4.6800 108.90 105.89 10.18
1341 4.6820 95.97 106.02 9.56
1342 4.6840 109.51 106.14 10.21
1343 4.6860 96.24 106.26 9.57
1344 4.6880 98.44 106.39 9.67
1345 4.6900 96.30 106.51 9.56
1346 4.6920 99.78 106.63 9.73
1347 4.6940 85.45 106.75 9.02
1348 4.6960 91.81 106.88 9.34
1349 4.6980 94.34 107.00 9.48
1350 4.7000 104.59 107.12 9.99
1351 4.7020 107.27 107.25 10.10
1352 4.7040 101.38 107.37 9.82
1353 4.7060 103.99 107.49 9.95
1354 4.7080 95.30 107.62 9.51
1355 4.7100 100.39 107.74 9.77
1356 4.7120 110.23 107.86 10.23
1357 4.7140 98.55 107.99 9.69
1358 4.7160 99.20 108.11 9.72
1359 4.7180 96.19 108.23 9.57
1360 4.7200 103.67 108.36 9.93
1361 4.7220 119.74 108.48 10.67
1362 4.7240 116.72 108.60 10.55
1363 4.7260 103.40 108.72 9.91
1364 4.7280 96.99 108.85 9.61
1365 4.7300 100.12 108.97 9.77
1366 4.7320 97.27 109.10 9.63
1367 4.7340 98.46 109.22 9.68
1368 4.7360 91.96 109.34 9.35
1369 4.7380 94.41 109.46 9.48
1370 4.7400 91.37 109.59 9.33
1371 4.7420 115.22 109.71 10.46
1372 4.7440 99.30 109.83 9.72
1373 4.7460 99.60 109.96 9.73
1374 4.7480 111.50 110.08 10.28
1375 4.7500 120.63 110.21 10.71
1376 4.7520 127.82 110.33 11.02
1377 4.7540 110.81 110.45 10.26
1378 4.7560 119.75 110.57 10.67
1379 4.7580 104.62 110.70 9.95
1380 4.7600 107.23 110.82 10.08
1381 4.7620 103.84 110.94 9.94
1382 4.7640 100.68 111.07 9.80
1383 4.7660 93.79 111.19 9.45
1384 4.7680 97.28 111.31 9.63
1385 4.7700 118.75 111.44 10.59
1386 4.7720 100.64 111.56 9.77
1387 4.7740 91.48 111.68 9.34
1388 4.7760 103.76 111.81 9.94
1389 4.7780 109.17 111.93 10.20
1390 4.7800 91.93 112.05 9.36
1391 4.7820 99.76 112.18 9.72
1392 4.7840 113.82 112.30 10.40
1393 4.7860 107.46 112.42 10.11
1394 4.7880 102.63 112.54 9.89
1395 4.7900 110.31 112.67 10.24
1396 4.7920 109.11 112.79 10.19
1397 4.7940 119.55 112.91 10.67
1398 4.7960 103.05 113.04 9.88
1399 4.7980 95.83 113.16 9.55
1400 4.8000 87.61 113.28 9.13
1401 4.8020 113.43 113.40 10.36
1402 4.8040 107.28 113.53 10.09
1403 4.8060 106.33 113.65 10.05
1404 4.8080 109.65 113.77 10.22
1405 4.8100 107.80 113.89 10.13
1406 4.8120 95.86 114.02 9.55
1407 4.8140 87.88 114.14 9.15
1408 4.8160 107.32 114.26 10.09
1409 4.8180 96.12 114.39 9.56
1410 4.8200 119.54 114.51 10.66
1411 4.8220 110.56 114.63 10.26
1412 4.8240 113.43 114.75 10.42
1413 4.8260 119.71 114.88 10.68
1414 4.8280 108.59 115.00 10.17
1415 4.8300 111.36 115.12 10.31
1416 4.8320 123.17 115.24 10.83
1417 4.8340 98.12 115.36 9.66
1418 4.8360 95.31 115.49 9.53
1419 4.8380 111.74 115.61 10.31
1420 4.8400 96.89 115.73 9.60
1421 4.8420 125.63 115.85 10.91
1422 4.8440 120.29 115.97 10.70
1423 4.8460 113.08 116.10 10.37
1424 4.8480 100.23 116.22 9.76
1425 4.8500 113.35 116.34 10.38
1426 4.8520 120.93 116.46 10.73
1427 4.8540 122.91 116.58 10.83
1428 4.8560 111.13 116.70 10.28
1429 4.8580 126.69 116.82 10.98
1430 4.8600 133.77 116.95 11.30
1431 4.8620 113.18 117.07 10.36
1432 4.8640 112.73 117.19 10.37
1433 4.8660 112.42 117.31 10.34
1434 4.8680 118.40 117.43 10.61
1435 4.8700 109.12 117.55 10.19
1436 4.8720 105.40 117.67 10.01
1437 4.8740 117.97 117.79 10.60
1438 4.8760 118.58 117.91 10.63
1439 4.8780 124.03 118.04 10.88
1440 4.8800 116.21 118.15 10.51
1441 4.8820 115.48 118.28 10.47
1442 4.8840 123.92 118.40 10.86
1443 4.8860 121.89 118.52 10.77
1444 4.8880 123.56 118.64 10.86
1445 4.8900 133.87 118.76 11.29
1446 4.8920 120.01 118.88 10.69
1447 4.8940 118.09 119.00 10.62
1448 4.8960 116.88 119.12 10.56
1449 4.8980 97.19 119.24 9.63
1450 4.9000 114.61 119.36 10.41
1451 4.9020 126.25 119.48 10.95
1452 4.9040 123.10 119.60 10.83
1453 4.9060 107.70 119.72 10.11
1454 4.9080 115.50 119.84 10.48
1455 4.9100 117.92 119.96 10.59
1456 4.9120 98.36 120.07 9.66
1457 4.9140 106.45 120.19 10.06
1458 4.9160 115.31 120.31 10.48
1459 4.9180 102.72 120.43 9.86
1460 4.9200 107.14 120.55 10.10
1461 4.9220 128.41 120.67 11.04
1462 4.9240 120.35 120.79 10.70
1463 4.9260 122.07 120.91 10.79
1464 4.9280 111.47 121.03 10.31
1465 4.9300 120.28 121.14 10.71
1466 4.9320 101.98 121.26 9.84
1467 4.9340 112.95 121.38 10.38
1468 4.9360 112.47 121.50 10.36
1469 4.9380 115.48 121.62 10.50
1470 4.9400 121.03 121.73 10.75
1471 4.9420 125.48 121.85 10.92
1472 4.9440 105.59 121.97 10.02
1473 4.9460 115.34 122.09 10.47
1474 4.9480 130.08 122.21 11.14
1475 4.9500 109.90 122.32 10.22
1476 4.9520 110.70 122.44 10.26
1477 4.9540 124.37 122.56 10.88
1478 4.9560 110.19 122.67 10.22
1479 4.9580 109.37 122.79 10.19
1480 4.9600 102.93 122.91 9.89
1481 4.9620 121.62 123.02 10.75
1482 4.9640 110.10 123.14 10.24
1483 4.9660 112.78 123.26 10.37
1484 4.9680 126.92 123.37 11.00
1485 4.9700 121.26 123.49 10.76
1486 4.9720 114.77 123.61 10.43
1487 4.9740 110.78 123.72 10.27
1488 4.9760 113.02 123.84 10.36
1489 4.9780 113.02 123.95 10.37
1490 4.9800 132.99 124.07 11.24
1491 4.9820 118.82 124.18 10.62
1492 4.9840 127.82 124.30 11.04
1493 4.9860 138.45 124.42 11.49
1494 4.9880 114.65 124.53 10.44
1495 4.9900 131.58 124.64 11.18
1496 4.9920 127.40 124.76 11.01
1497 4.9940 129.24 124.88 11.09
1498 4.9960 134.87 124.99 11.32
1499 4.9980 134.86 125.10 11.33
1500 5.0000 128.84 125.22 11.08
1501 5.0020 125.29 125.33 10.92
1502 5.0040 137.39 125.45 11.45
1503 5.0060 135.76 125.56 11.36
1504 5.0080 141.65 125.67 11.61
1505 5.0100 111.40 125.79 10.29
1506 5.0120 107.10 125.90 10.11
1507 5.0140 115.00 126.01 10.48
1508 5.0160 119.31 126.13 10.66
1509 5.0180 131.11 126.24 11.18
1510 5.0200 127.24 126.35 11.01
1511 5.0220 121.13 126.47 10.74
1512 5.0240 130.29 126.58 11.15
1513 5.0260 134.78 126.69 11.33
1514 5.0280 126.82 126.80 10.99
1515 5.0300 147.40 126.92 11.85
1516 5.0320 138.98 127.03 11.51
1517 5.0340 127.98 127.14 11.02
1518 5.0360 112.11 127.25 10.32
1519 5.0380 127.99 127.36 11.04
1520 5.0400 124.13 127.47 10.88
1521 5.0420 135.05 127.59 11.34
1522 5.0440 124.28 127.70 10.88
1523 5.0460 117.48 127.81 10.58
1524 5.0480 116.99 127.92 10.56
1525 5.0500 113.28 128.03 10.39
1526 5.0520 121.84 128.14 10.77
1527 5.0540 135.90 128.25 11.39
1528 5.0560 119.23 128.36 10.63
1529 5.0580 118.55 128.47 10.63
1530 5.0600 124.38 128.58 10.88
1531 5.0620 140.24 128.69 11.55
1532 5.0640 135.26 128.80 11.35
1533 5.0660 120.08 128.91 10.70
1534 5.0680 127.64 129.02 11.02
1535 5.0700 142.15 129.13 11.64
1536 5.0720 126.37 129.24 10.96
1537 5.0740 135.23 129.35 11.35
1538 5.0760 131.32 129.45 11.19
1539 5.0780 135.18 129.56 11.36
1540 5.0800 129.29 129.67 11.10
1541 5.0820 137.46 129.78 11.44
1542 5.0840 126.35 129.89 10.97
1543 5.0860 128.40 129.99 11.06
1544 5.0880 133.76 130.10 11.27
1545 5.0900 146.29 130.21 11.80
1546 5.0920 130.14 130.32 11.13
1547 5.0940 126.79 130.42 11.00
1548 5.0960 116.65 130.53 10.54
1549 5.0980 124.44 130.64 10.89
1550 5.1000 121.86 130.74 10.79
1551 5.1020 130.65 130.85 11.15
1552 5.1040 146.45 130.95 11.81
1553 5.1060 135.25 131.06 11.35
1554 5.1080 140.82 131.17 11.59
1555 5.1100 127.98 131.27 11.05
1556 5.1120 126.07 131.38 10.96
1557 5.1140 129.31 131.48 11.11
1558 5.1160 122.89 131.59 10.83
1559 5.1180 140.98 131.69 11.59
1560 5.1200 128.83 131.80 11.08
1561 5.1220 141.19 131.90 11.59
1562 5.1240 124.18 132.01 10.88
1563 5.1260 139.81 132.11 11.53
1564 5.1280 143.17 132.21 11.68
1565 5.1300 123.82 132.32 10.86
1566 5.1320 131.40 132.42 11.19
1567 5.1340 117.34 132.52 10.57
1568 5.1360 135.12 132.63 11.34
1569 5.1380 128.79 132.73 11.09
1570 5.1400 128.25 132.83 11.06
1571 5.1420 120.86 132.93 10.73
1572 5.1440 121.85 133.04 10.79
1573 5.1460 131.92 133.14 11.21
1574 5.1480 125.27 133.24 10.93
1575 5.1500 146.64 133.34 11.83
1576 5.1520 131.75 133.45 11.18
1577 5.1540 128.83 133.55 11.08
1578 5.1560 115.74 133.65 10.51
1579 5.1580 126.98 133.75 11.00
1580 5.1600 128.20 133.85 11.05
1581 5.1620 143.42 133.95 11.69
1582 5.1640 132.95 134.05 11.26
1583 5.1660 138.53 134.15 11.49
1584 5.1680 137.85 134.25 11.47
1585 5.1700 124.16 134.35 10.88
1586 5.1720 132.42 134.45 11.23
1587 5.1740 124.83 134.55 10.91
1588 5.1760 138.75 134.65 11.49
1589 5.1780 134.31 134.75 11.31
1590 5.1800 115.46 134.85 10.48
1591 5.1820 135.68 134.94 11.35
1592 5.1840 133.81 135.04 11.29
1593 5.1860 139.42 135.14 11.51
1594 5.1880 132.51 135.24 11.23
1595 5.1900 139.59 135.34 11.54
1596 5.1920 130.22 135.43 11.13
1597 5.1940 143.13 135.53 11.68
1598 5.1960 130.74 135.63 11.16
1599 5.1980 142.41 135.72 11.63
1600 5.2000 146.00 135.82 11.79
1601 5.2020 156.37 135.92 12.20
1602 5.2040 147.16 136.01 11.84
1603 5.2060 134.00 136.11 11.31
1604 5.2080 146.56 136.21 11.83
1605 5.2100 140.18 136.30 11.56
1606 5.2120 126.10 136.40 10.96
1607 5.2140 142.39 137.99 11.65
1608 5.2160 142.96 138.13 11.68
1609 5.2180 131.74 138.27 11.20
1610 5.2200 153.92 138.41 12.11
1611 5.2220 132.39 138.56 11.23
1612 5.2240 123.32 138.71 10.84
1613 5.2260 132.07 138.86 11.21
1614 5.2280 117.88 139.01 10.60
1615 5.2300 123.46 139.17 10.85
1616 5.2320 129.93 139.32 11.13
1617 5.2340 139.91 139.49 11.52
1618 5.2360 143.78 139.65 11.69
1619 5.2380 144.99 140.71 11.77
1620 5.2400 154.30 140.90 12.14
1621 5.2420 142.55 141.11 11.66
1622 5.2440 130.76 141.32 11.17
1623 5.2460 138.70 141.53 11.50
1624 5.2480 130.63 141.76 11.16
1625 5.2500 137.47 141.99 11.44
1626 5.2520 147.28 142.23 11.83
1627 5.2540 138.00 142.47 11.46
1628 5.2560 146.91 142.73 11.83
1629 5.2580 146.15 142.99 11.81
1630 5.2600 146.43 143.27 11.82
1631 5.2620 151.59 143.56 12.01
1632 5.2640 153.90 143.86 12.10
1633 5.2660 132.55 144.18 11.23
1634 5.2680 139.92 144.51 11.55
1635 5.2700 138.88 144.86 11.50
1636 5.2720 136.14 145.22 11.38
1637 5.2740 136.49 145.61 11.40
1638 5.2760 147.16 146.02 11.84
1639 5.2780 137.83 146.46 11.45
1640 5.2800 137.20 146.92 11.43
1641 5.2820 121.74 147.41 10.76
1642 5.2840 133.97 147.94 11.30
1643 5.2860 138.23 148.51 11.46
1644 5.2880 134.25 149.12 11.31
1645 5.2900 157.14 149.79 12.21
1646 5.2920 142.40 150.50 11.63
1647 5.2940 150.68 151.28 11.98
1648 5.2960 142.71 152.14 11.66
1649 5.2980 137.86 153.07 11.47
1650 5.3000 136.41 154.11 11.41
1651 5.3020 165.57 155.25 12.55
1652 5.3040 163.13 156.52 12.48
1653 5.3060 156.22 157.95 12.21
1654 5.3080 148.86 159.56 11.90
1655 5.3100 161.19 161.38 12.38
1656 5.3120 170.44 163.46 12.74
1657 5.3140 157.73 165.85 12.26
1658 5.3160 160.57 168.63 12.37
1659 5.3180 166.51 171.88 12.60
1660 5.3200 173.20 175.72 12.85
1661 5.3220 183.27 180.32 13.21
1662 5.3240 172.01 185.90 12.81
1663 5.3260 199.66 192.77 13.78
1664 5.3280 205.51 201.37 13.98
1665 5.3300 195.01 212.34 13.63
1666 5.3320 208.40 226.69 14.07
1667 5.3340 251.99 245.96 15.48
1668 5.3360 290.67 272.73 16.64
1669 5.3380 335.87 311.49 17.89
1670 5.3400 388.49 371.04 19.25
1671 5.3420 457.24 473.03 20.85
1672 5.3440 663.93 679.62 25.09
1673 5.3460 1160.49 1136.96 33.09
1674 5.3480 2076.58 2030.18 44.27
1675 5.3500 3422.71 3137.07 56.89
1676 5.3520 3428.88 3062.52 57.11
1677 5.3540 2137.43 1941.76 44.72
1678 5.3560 1134.97 1103.12 32.53
1679 5.3580 707.25 690.14 25.87
1680 5.3600 554.92 513.97 23.00
1681 5.3620 492.69 439.61 21.67
1682 5.3640 446.10 414.99 20.62
1683 5.3660 468.51 430.56 21.13
1684 5.3680 549.06 506.84 22.86
1685 5.3700 721.47 712.78 26.19
1686 5.3720 1091.64 1160.44 32.16
1687 5.3740 1823.20 1825.22 41.50
1688 5.3760 2240.53 2010.47 46.17
1689 5.3780 1678.95 1389.41 39.85
1690 5.3800 881.10 815.73 28.60
1691 5.3820 500.10 509.67 21.72
1692 5.3840 340.15 369.77 17.95
1693 5.3860 293.58 301.50 16.72
1694 5.3880 262.99 262.09 15.82
1695 5.3900 232.68 236.46 14.90
1696 5.3920 205.70 218.70 13.98
1697 5.3940 215.35 205.85 14.32
1698 5.3960 203.61 196.23 13.89
1699 5.3980 177.71 188.83 13.00
1700 5.4000 171.62 183.01 12.79
1701 5.4020 197.16 178.34 13.70
1702 5.4040 185.35 174.53 13.29
1703 5.4060 175.60 171.38 12.93
1704 5.4080 166.70 168.74 12.59
1705 5.4100 170.45 166.51 12.74
1706 5.4120 177.16 164.61 12.99
1707 5.4140 158.59 162.97 12.29
1708 5.4160 149.83 161.56 11.95
1709 5.4180 165.34 160.32 12.55
1710 5.4200 175.98 159.24 12.96
1711 5.4220 158.94 158.28 12.30
1712 5.4240 169.24 157.44 12.70
1713 5.4260 178.99 156.69 13.03
1714 5.4280 158.81 156.02 12.28
1715 5.4300 156.91 155.42 12.23
1716 5.4320 162.52 154.88 12.44
1717 5.4340 143.92 154.40 11.70
1718 5.4360 125.52 153.96 10.93
1719 5.4380 134.72 153.57 11.32
1720 5.4400 154.53 153.22 12.14
1721 5.4420 172.36 152.89 12.81
1722 5.4440 153.02 152.60 12.07
1723 5.4460 136.10 152.33 11.39
1724 5.4480 147.99 152.09 11.88
1725 5.4500 162.76 151.87 12.45
1726 5.4520 151.57 151.67 12.01
1727 5.4540 154.59 151.49 12.14
1728 5.4560 144.96 151.32 11.76
1729 5.4580 152.30 151.17 12.06
1730 5.4600 163.82 151.03 12.49
1731 5.4620 153.10 150.90 12.07
1732 5.4640 139.26 150.79 11.52
1733 5.4660 142.93 150.68 11.67
1734 5.4680 144.13 150.58 11.72
1735 5.4700 158.33 150.50 12.28
1736 5.4720 154.07 150.42 12.11
1737 5.4740 134.24 150.35 11.30
1738 5.4760 148.93 150.28 11.91
1739 5.4780 153.98 150.22 12.11
1740 5.4800 154.51 150.17 12.13
1741 5.4820 151.69 150.12 12.02
1742 5.4840 158.02 150.08 12.27
1743 5.4860 163.99 150.05 12.50
1744 5.4880 138.91 150.01 11.50
1745 5.4900 151.30 148.53 12.01
1746 5.4920 148.01 148.55 11.87
1747 5.4940 162.95 148.57 12.46
1748 5.4960 157.13 148.59 12.24
1749 5.4980 150.72 148.61 11.99
1750 5.5000 149.99 148.63 11.97
1751 5.5020 161.60 148.66 12.41
1752 5.5040 160.82 148.68 12.38
1753 5.5060 154.48 148.71 12.13
1754 5.5080 162.04 148.74 12.42
1755 5.5100 156.72 148.77 12.21
1756 5.5120 150.24 148.80 11.96
1757 5.5140 154.00 147.96 12.11
1758 5.5160 162.27 148.01 12.43
1759 5.5180 149.84 148.07 11.95
1760 5.5200 150.70 148.12 11.98
1761 5.5220 165.60 148.18 12.56
1762 5.5240 147.58 148.23 11.86
1763 5.5260 152.88 148.29 12.07
1764 5.5280 154.14 148.34 12.09
1765 5.5300 157.64 148.40 12.25
1766 5.5320 143.81 148.45 11.69
1767 5.5340 137.82 148.51 11.46
1768 5.5360 154.51 148.56 12.12
1769 5.5380 158.32 148.61 12.27
1770 5.5400 157.79 148.66 12.25
1771 5.5420 165.21 148.72 12.54
1772 5.5440 163.69 148.77 12.49
1773 5.5460 154.98 148.82 12.14
1774 5.5480 158.73 148.87 12.30
1775 5.5500 164.73 148.92 12.50
1776 5.5520 170.29 148.98 12.73
1777 5.5540 172.97 149.03 12.84
1778 5.5560 182.06 149.08 13.17
1779 5.5580 185.34 149.13 13.29
1780 5.5600 158.20 149.18 12.27
1781 5.5620 170.20 149.23 12.73
1782 5.5640 159.89 149.28 12.34
1783 5.5660 173.27 149.32 12.83
1784 5.5680 163.22 149.37 12.46
1785 5.5700 159.19 149.42 12.31
1786 5.5720 165.27 149.47 12.55
1787 5.5740 176.64 149.52 12.97
1788 5.5760 193.73 149.57 13.59
1789 5.5780 192.13 149.61 13.53
1790 5.5800 191.14 149.66 13.50
1791 5.5820 204.06 149.71 13.94
1792 5.5840 224.19 149.75 14.62
1793 5.5860 211.09 149.80 14.19
1794 5.5880 179.89 149.85 13.09
1795 5.5900 172.65 149.89 12.83
1796 5.5920 156.11 149.94 12.19
1797 5.5940 154.75 149.98 12.15
1798 5.5960 154.31 150.03 12.12
1799 5.5980 144.62 150.07 11.74
1800 5.6000 163.69 150.12 12.48
1801 5.6020 166.26 150.16 12.58
1802 5.6040 161.89 150.20 12.41
1803 5.6060 164.30 150.25 12.50
1804 5.6080 181.51 150.29 13.14
1805 5.6100 154.08 150.33 12.10
1806 5.6120 150.31 150.38 11.97
1807 5.6140 143.06 150.42 11.68
1808 5.6160 148.62 150.46 11.89
1809 5.6180 150.93 150.50 12.00
1810 5.6200 168.39 150.54 12.67
1811 5.6220 156.41 150.58 12.21
1812 5.6240 160.47 150.62 12.37
1813 5.6260 163.16 150.66 12.48
1814 5.6280 145.41 150.71 11.77
1815 5.6300 156.45 150.74 12.21
1816 5.6320 159.09 150.79 12.32
1817 5.6340 155.77 150.82 12.19
1818 5.6360 156.79 150.86 12.22
1819 5.6380 150.55 150.90 11.97
1820 5.6400 142.87 150.94 11.67
1821 5.6420 157.23 150.98 12.23
1822 5.6440 156.84 151.02 12.23
1823 5.6460 159.67 151.05 12.33
1824 5.6480 165.74 151.09 12.57
1825 5.6500 164.80 151.13 12.54
1826 5.6520 165.40 151.16 12.56
1827 5.6540 157.76 151.20 12.27
1828 5.6560 152.76 151.24 12.06
1829 5.6580 147.04 151.27 11.84
1830 5.6600 150.55 151.31 11.95
1831 5.6620 154.86 151.34 12.14
1832 5.6640 152.47 151.38 12.05
1833 5.6660 149.21 151.41 11.92
1834 5.6680 153.01 151.45 12.08
1835 5.6700 170.80 151.48 12.77
1836 5.6720 156.56 151.52 12.21
1837 5.6740 153.98 151.55 12.12
1838 5.6760 153.75 151.58 12.11
1839 5.6780 153.79 151.62 12.11
1840 5.6800 158.04 151.65 12.28
1841 5.6820 170.80 151.68 12.75
1842 5.6840 157.07 151.71 12.23
1843 5.6860 152.95 151.75 12.07
1844 5.6880 152.91 151.78 12.06
1845 5.6900 164.50 151.81 12.51
1846 5.6920 158.08 151.84 12.27
1847 5.6940 149.22 151.87 11.93
1848 5.6960 160.61 151.90 12.37
1849 5.6980 173.85 151.93 12.88
1850 5.7000 171.22 151.96 12.78
1851 5.7020 153.07 151.99 12.06
1852 5.7040 159.35 152.02 12.32
1853 5.7060 159.77 152.05 12.34
1854 5.7080 163.85 152.08 12.50
1855 5.7100 162.51 152.10 12.44
1856 5.7120 151.23 152.13 12.00
1857 5.7140 160.40 152.16 12.37
1858 5.7160 161.33 152.19 12.39
1859 5.7180 151.68 152.22 11.99
1860 5.7200 158.99 152.24 12.30
1861 5.7220 178.79 152.27 13.05
1862 5.7240 170.00 152.30 12.73
1863 5.7260 165.33 152.32 12.55
1864 5.7280 151.64 152.35 12.02
1865 5.7300 168.02 152.37 12.65
1866 5.7320 163.27 152.40 12.47
1867 5.7340 160.39 152.42 12.37
1868 5.7360 172.83 152.45 12.83
1869 5.7380 154.19 152.47 12.11
1870 5.7400 171.14 152.50 12.75
1871 5.7420 184.26 152.52 13.24
1872 5.7440 178.18 152.54 13.04
1873 5.7460 166.16 152.57 12.56
1874 5.7480 160.10 152.59 12.35
1875 5.7500 168.03 152.61 12.65
1876 5.7520 170.64 152.64 12.75
1877 5.7540 167.85 152.66 12.66
1878 5.7560 174.17 152.68 12.90
1879 5.7580 176.70 152.70 12.98
1880 5.7600 192.59 152.72 13.56
1881 5.7620 187.07 152.74 13.34
1882 5.7640 174.77 152.76 12.91
1883 5.7660 165.58 152.78 12.55
1884 5.7680 151.30 152.80 12.00
1885 5.7700 154.95 152.82 12.16
1886 5.7720 150.24 152.84 11.96
1887 5.7740 155.24 152.86 12.17
1888 5.7760 162.38 152.88 12.43
1889 5.7780 174.08 152.90 12.89
1890 5.7800 162.86 152.92 12.46
1891 5.7820 145.20 152.94 11.76
1892 5.7840 148.83 152.96 11.91
1893 5.7860 156.22 152.97 12.20
1894 5.7880 160.83 152.99 12.38
1895 5.7900 135.72 153.01 11.37
1896 5.7920 153.79 153.02 12.09
1897 5.7940 164.97 153.04 12.54
1898 5.7960 163.76 153.06 12.49
1899 5.7980 143.00 153.07 11.67
1900 5.8000 145.36 153.09 11.77
1901 5.8020 172.63 153.10 12.81
1902 5.8040 167.00 153.12 12.60
1903 5.8060 154.45 153.13 12.12
1904 5.8080 162.59 153.15 12.45
1905 5.8100 158.75 153.16 12.30
1906 5.8120 159.14 153.18 12.32
1907 5.8140 155.18 153.19 12.15
1908 5.8160 148.82 153.20 11.90
1909 5.8180 159.18 153.22 12.32
1910 5.8200 161.57 153.23 12.40
1911 5.8220 157.19 153.24 12.23
1912 5.8240 136.51 153.25 11.40
1913 5.8260 174.36 153.27 12.87
1914 5.8280 160.33 153.28 12.32
1915 5.8300 157.86 153.29 12.26
1916 5.8320 154.05 153.30 12.12
1917 5.8340 153.26 153.31 12.07
1918 5.8360 170.18 153.32 12.72
1919 5.8380 177.77 153.33 13.03
1920 5.8400 161.42 153.34 12.40
1921 5.8420 151.79 153.35 12.02
1922 5.8440 148.87 153.36 11.91
1923 5.8460 163.58 153.37 12.48
1924 5.8480 152.83 153.38 12.05
1925 5.8500 152.49 153.39 12.05
1926 5.8520 146.00 153.40 11.80
1927 5.8540 147.23 153.40 11.85
1928 5.8560 158.86 153.41 12.30
1929 5.8580 175.48 153.42 12.94
1930 5.8600 174.37 153.43 12.90
1931 5.8620 154.28 153.43 12.13
1932 5.8640 150.66 153.44 11.98
1933 5.8660 157.49 153.45 12.25
1934 5.8680 158.48 153.46 12.29
1935 5.8700 163.10 153.46 12.47
1936 5.8720 156.49 153.73 12.21
1937 5.8740 133.50 153.75 11.27
1938 5.8760 138.89 153.76 11.48
1939 5.8780 189.12 153.77 13.40
1940 5.8800 182.64 153.79 13.17
1941 5.8820 162.74 153.80 12.44
1942 5.8840 158.65 153.81 12.29
1943 5.8860 166.16 153.83 12.58
1944 5.8880 152.01 153.84 12.02
1945 5.8900 157.88 153.86 12.26
1946 5.8920 150.58 153.87 11.98
1947 5.8940 156.23 153.89 12.19
1948 5.8960 163.45 153.90 12.47
1949 5.8980 149.15 153.92 11.91
1950 5.9000 144.27 153.94 11.73
1951 5.9020 168.89 153.95 12.68
1952 5.9040 157.97 153.97 12.26
1953 5.9060 143.94 153.99 11.70
1954 5.9080 155.71 154.01 12.17
1955 5.9100 157.59 154.03 12.23
1956 5.9120 165.66 154.05 12.55
1957 5.9140 144.48 154.07 11.73
1958 5.9160 155.92 154.10 12.18
1959 5.9180 162.65 154.12 12.46
1960 5.9200 162.90 154.15 12.46
1961 5.9220 174.15 154.17 12.88
1962 5.9240 167.33 154.20 12.63
1963 5.9260 164.68 154.23 12.53
1964 5.9280 169.60 154.27 12.71
1965 5.9300 163.87 154.30 12.50
1966 5.9320 151.36 154.34 12.01
1967 5.9340 164.74 154.38 12.54
1968 5.9360 152.78 154.43 12.07
1969 5.9380 151.09 154.48 12.00
1970 5.9400 150.90 154.53 12.00
1971 5.9420 163.40 154.59 12.47
1972 5.9440 177.92 154.65 13.02
1973 5.9460 173.96 154.72 12.87
1974 5.9480 176.49 154.79 12.98
1975 5.9500 147.09 154.87 11.83
1976 5.9520 160.00 154.97 12.34
1977 5.9540 150.07 155.07 11.95
1978 5.9560 142.88 155.18 11.67
1979 5.9580 142.70 155.31 11.67
1980 5.9600 144.55 155.45 11.74
1981 5.9620 154.65 155.61 12.13
1982 5.9640 147.02 155.80 11.83
1983 5.9660 146.50 156.01 11.81
1984 5.9680 160.88 156.25 12.37
1985 5.9700 139.02 156.52 11.50
1986 5.9720 163.17 156.84 12.45
1987 5.9740 153.67 157.22 12.10
1988 5.9760 160.06 157.66 12.34
1989 5.9780 152.59 158.19 12.06
1990 5.9800 166.83 158.83 12.60
1991 5.9820 153.10 159.60 12.07
1992 5.9840 175.28 160.56 12.92
1993 5.9860 171.95 161.75 12.80
1994 5.9880 154.86 163.27 12.13
1995 5.9900 185.01 165.24 13.27
1996 5.9920 168.33 167.87 12.64
1997 5.9940 169.32 171.46 12.70
1998 5.9960 190.06 176.53 13.45
1999 5.9980 199.51 184.04 13.78
2000 6.0000 205.80 195.89 14.47
2001 6.0020 233.69 216.88 15.41
2002 6.0040 269.03 260.23 16.58
2003 6.0060 379.40 353.50 19.62
2004 6.0080 562.43 523.43 23.99
2005 6.0100 635.80 689.08 25.37
2006 6.0120 621.80 607.04 24.73
2007 6.0140 457.51 414.92 21.17
2008 6.0160 312.02 290.97 17.55
2009 6.0180 233.71 230.91 15.33
2010 6.0200 195.73 202.93 14.06
2011 6.0220 170.87 188.14 13.16
2012 6.0240 175.76 179.12 13.35
2013 6.0260 187.57 173.16 13.70
2014 6.0280 176.65 169.00 13.36
2015 6.0300 170.59 166.00 13.11
2016 6.0320 168.38 163.76 13.04
2017 6.0340 165.16 162.04 13.00
2018 6.0360 163.78 160.70 12.92
2019 6.0380 168.09 159.63 13.07
2020 6.0400 163.85 158.76 12.90
2021 6.0420 160.79 158.05 12.78
2022 6.0440 165.24 157.46 12.96
2023 6.0460 160.87 156.95 12.76
2024 6.0480 142.46 156.53 12.01
2025 6.0500 152.88 156.16 12.40
2026 6.0520 150.43 155.84 12.35
2027 6.0540 175.19 155.56 13.32
2028 6.0560 169.36 155.31 13.11
2029 6.0580 149.75 155.10 12.30
2030 6.0600 150.62 154.90 12.33
2031 6.0620 160.15 154.73 12.78
2032 6.0640 152.34 154.57 12.45
2033 6.0660 159.33 154.42 12.68
2034 6.0680 162.50 154.29 12.77
2035 6.0700 137.93 154.17 11.80
2036 6.0720 159.66 154.06 12.68
2037 6.0740 174.94 153.96 13.31
2038 6.0760 172.79 153.86 13.23
2039 6.0780 165.10 153.77 13.01
2040 6.0800 168.70 153.69 13.11
2041 6.0820 150.28 153.61 12.35
2042 6.0840 157.52 153.54 12.62
2043 6.0860 156.37 153.46 12.59
2044 6.0880 149.38 153.40 12.26
2045 6.0900 151.11 153.33 12.34
2046 6.0920 170.90 153.27 13.12
2047 6.0940 149.93 153.21 12.30
2048 6.0960 148.35 153.16 12.25
2049 6.0980 165.42 153.10 12.93
2050 6.1000 157.62 153.05 12.63
2051 6.1020 160.96 153.00 12.82
2052 6.1040 175.54 152.95 13.31
2053 6.1060 142.29 152.90 11.98
2054 6.1080 147.18 152.86 12.22
2055 6.1100 164.43 152.81 12.95
2056 6.1120 162.97 152.77 12.88
2057 6.1140 163.66 152.72 12.84
2058 6.1160 142.40 152.68 11.97
2059 6.1180 142.35 152.64 12.02
2060 6.1200 142.74 152.60 12.06
2061 6.1220 165.47 152.56 12.91
2062 6.1240 169.21 152.52 13.05
2063 6.1260 155.50 152.48 12.56
2064 6.1280 164.08 152.44 12.89
2065 6.1300 148.10 152.40 12.24
2066 6.1320 147.62 152.36 12.24
2067 6.1340 162.42 152.32 12.85
2068 6.1360 158.79 152.29 12.66
2069 6.1380 139.88 152.25 11.90
2070 6.1400 152.03 152.21 12.36
2071 6.1420 143.09 152.18 12.03
2072 6.1440 149.93 152.14 12.34
2073 6.1460 148.53 152.10 12.22
2074 6.1480 158.48 152.07 12.63
2075 6.1500 171.78 151.77 13.16
2076 6.1520 157.19 151.74 12.57
2077 6.1540 153.02 151.71 12.45
2078 6.1560 158.87 151.68 12.67
2079 6.1580 157.40 151.65 12.65
2080 6.1600 153.12 151.62 12.40
2081 6.1620 147.53 151.59 12.15
2082 6.1640 170.90 151.56 13.19
2083 6.1660 169.68 151.53 13.07
2084 6.1680 136.86 151.50 11.74
2085 6.1700 133.15 151.47 11.57
2086 6.1720 165.13 151.44 12.93
2087 6.1740 158.88 151.41 12.72
2088 6.1760 148.07 151.38 12.23
2089 6.1780 138.36 151.34 11.83
2090 6.1800 148.71 151.31 12.29
2091 6.1820 151.76 151.28 12.35
2092 6.1840 140.17 151.25 11.86
2093 6.1860 148.17 151.21 12.24
2094 6.1880 156.27 151.18 12.63
2095 6.1900 154.66 151.15 12.53
2096 6.1920 149.16 151.12 12.25
2097 6.1940 152.31 151.08 12.40
2098 6.1960 153.23 151.05 12.45
2099 6.1980 163.08 151.02 12.81
2100 6.2000 147.99 150.98 12.19
2101 6.2020 172.86 150.95 13.19
2102 6.2040 161.22 150.91 12.77
2103 6.2060 158.91 150.88 12.70
2104 6.2080 173.00 150.84 13.18
2105 6.2100 156.53 150.81 12.50
2106 6.2120 147.50 150.77 12.23
2107 6.2140 135.51 150.74 11.74
2108 6.2160 132.15 150.70 11.53
2109 6.2180 134.63 150.67 11.64
2110 6.2200 151.13 150.63 12.42
2111 6.2220 152.96 150.60 12.50
2112 6.2240 149.87 150.56 12.31
2113 6.2260 150.09 150.52 12.28
2114 6.2280 144.91 150.49 12.09
2115 6.2300 148.59 150.45 12.23
2116 6.2320 155.66 150.41 12.53
2117 6.2340 151.70 150.38 12.37
2118 6.2360 148.70 150.34 12.24
2119 6.2380 133.10 150.30 11.59
2120 6.2400 154.60 150.26 12.48
2121 6.2420 142.30 150.22 11.99
2122 6.2440 143.13 150.18 12.02
2123 6.2460 161.29 150.15 12.68
2124 6.2480 151.74 150.11 12.32
2125 6.2500 149.67 150.07 12.34
2126 6.2520 144.67 150.03 12.12
2127 6.2540 159.21 149.99 12.61
2128 6.2560 154.11 149.95 12.47
2129 6.2580 140.37 149.91 11.92
2130 6.2600 155.87 149.87 12.52
2131 6.2620 149.87 149.83 12.26
2132 6.2640 138.63 149.79 11.90
2133 6.2660 147.26 149.75 12.20
2134 6.2680 154.03 149.71 12.50
2135 6.2700 159.10 149.67 12.69
2136 6.2720 151.04 149.63 12.31
2137 6.2740 152.88 149.59 12.42
2138 6.2760 142.58 149.55 12.03
2139 6.2780 150.65 149.51 12.34
2140 6.2800 147.15 149.46 12.18
2141 6.2820 156.32 149.42 12.54
2142 6.2840 156.42 149.38 12.57
2143 6.2860 140.38 149.34 11.91
2144 6.2880 147.16 149.29 12.13
2145 6.2900 135.82 149.25 11.67
2146 6.2920 134.49 149.21 11.62
2147 6.2940 147.34 149.17 12.20
2148 6.2960 163.43 149.12 12.82
2149 6.2980 151.27 149.08 12.35
2150 6.3000 133.66 149.04 11.61
2151 6.3020 132.45 148.99 11.56
2152 6.3040 146.34 148.95 12.16
2153 6.3060 140.65 148.90 11.93
2154 6.3080 126.78 148.86 11.31
2155 6.3100 130.16 148.82 11.44
2156 6.3120 145.10 148.77 12.06
2157 6.3140 143.11 148.73 11.98
2158 6.3160 128.52 148.68 11.34
2159 6.3180 147.68 148.64 12.21
2160 6.3200 149.23 148.59 12.29
2161 6.3220 156.89 148.54 12.60
2162 6.3240 158.42 148.50 12.65
2163 6.3260 167.67 148.45 12.98
2164 6.3280 172.55 148.41 13.19
2165 6.3300 164.22 148.36 12.89
2166 6.3320 132.84 148.32 11.59
2167 6.3340 138.40 148.27 11.77
2168 6.3360 148.43 148.22 12.23
2169 6.3380 162.20 148.18 12.81
2170 6.3400 151.39 148.13 12.40
2171 6.3420 148.96 148.08 12.30
2172 6.3440 170.98 148.03 13.09
2173 6.3460 183.54 147.99 13.60
2174 6.3480 205.71 147.94 14.42
2175 6.3500 194.37 147.89 13.98
2176 6.3520 210.29 147.84 14.54
2177 6.3540 201.86 147.79 14.24
2178 6.3560 167.60 147.75 12.94
2179 6.3580 140.62 147.70 11.86
2180 6.3600 142.97 147.65 11.98
2181 6.3620 148.39 147.60 12.23
2182 6.3640 153.76 147.55 12.48
2183 6.3660 153.71 147.50 12.44
2184 6.3680 146.01 147.45 12.13
2185 6.3700 145.77 147.40 12.13
2186 6.3720 136.34 147.35 11.72
2187 6.3740 144.98 147.30 12.09
2188 6.3760 151.01 147.25 12.31
2189 6.3780 142.04 147.20 11.96
2190 6.3800 133.33 147.15 11.63
2191 6.3820 130.89 147.10 11.46
2192 6.3840 149.20 147.05 12.24
2193 6.3860 133.12 147.00 11.59
2194 6.3880 136.16 146.95 11.74
2195 6.3900 143.72 146.90 12.06
2196 6.3920 158.48 146.85 12.64
2197 6.3940 146.95 146.80 12.18
2198 6.3960 136.18 146.74 11.74
2199 6.3980 148.55 146.69 12.22
2200 6.4000 141.44 146.64 11.94
2201 6.4020 144.41 146.59 12.05
2202 6.4040 150.40 146.54 12.31
2203 6.4060 124.80 146.49 11.22
2204 6.4080 130.34 146.43 11.52
2205 6.4100 146.12 146.38 12.08
2206 6.4120 144.49 146.33 12.05
2207 6.4140 148.09 146.27 12.20
2208 6.4160 137.70 146.22 11.82
2209 6.4180 138.77 146.17 11.86
2210 6.4200 147.16 146.12 12.22
2211 6.4220 133.18 146.06 11.63
2212 6.4240 130.21 146.01 11.49
2213 6.4260 140.91 146.92 11.90
2214 6.4280 139.51 146.90 11.82
2215 6.4300 131.18 146.87 11.49
2216 6.4320 125.01 146.85 11.22
2217 6.4340 140.02 146.83 11.80
2218 6.4360 153.46 146.81 12.37
2219 6.4380 143.11 146.79 12.02
2220 6.4400 144.05 146.77 12.06
2221 6.4420 129.65 146.76 11.42
2222 6.4440 133.36 146.74 11.60
2223 6.4460 131.58 146.73 11.54
2224 6.4480 138.67 146.72 11.87
2225 6.4500 135.86 146.71 11.74
2226 6.4520 132.96 146.71 11.60
2227 6.4540 150.53 146.71 12.37
2228 6.4560 148.26 146.71 12.25
2229 6.4580 141.99 146.71 11.97
2230 6.4600 135.95 146.72 11.71
2231 6.4620 126.90 146.73 11.30
2232 6.4640 150.95 146.74 12.30
2233 6.4660 163.43 146.76 12.78
2234 6.4680 136.96 146.79 11.71
2235 6.4700 132.91 146.81 11.55
2236 6.4720 138.43 146.85 11.81
2237 6.4740 149.88 146.89 12.34
2238 6.4760 141.06 146.93 11.90
2239 6.4780 134.77 146.99 11.61
2240 6.4800 150.54 147.04 12.31
2241 6.4820 148.15 147.11 12.20
2242 6.4840 152.65 147.19 12.39
2243 6.4860 152.58 147.28 12.45
2244 6.4880 143.32 147.38 12.02
2245 6.4900 133.29 147.50 11.53
2246 6.4920 128.17 147.62 11.35
2247 6.4940 143.32 147.77 11.98
2248 6.4960 141.95 147.93 11.93
2249 6.4980 142.26 148.11 11.97
2250 6.5000 130.57 148.31 11.48
2251 6.5020 146.84 148.54 12.13
2252 6.5040 139.36 148.80 11.84
2253 6.5060 133.70 149.09 11.64
2254 6.5080 141.42 149.41 11.96
2255 6.5100 141.16 149.78 11.91
2256 6.5120 136.41 150.20 11.72
2257 6.5140 141.77 150.68 11.93
2258 6.5160 144.33 151.22 11.99
2259 6.5180 156.89 151.84 12.57
2260 6.5200 136.07 152.55 11.75
2261 6.5220 141.19 153.38 11.99
2262 6.5240 161.48 154.34 12.77
2263 6.5260 156.59 155.45 12.55
2264 6.5280 141.13 156.76 11.91
2265 6.5300 153.60 158.31 12.47
2266 6.5320 161.14 160.16 12.75
2267 6.5340 163.84 162.40 12.86
2268 6.5360 155.09 165.11 12.52
2269 6.5380 161.57 168.46 12.72
2270 6.5400 168.93 172.65 13.06
2271 6.5420 181.34 177.98 13.52
2272 6.5440 172.52 184.89 13.16
2273 6.5460 182.82 194.05 13.50
2274 6.5480 215.16 206.54 14.72
2275 6.5500 247.02 224.13 15.77
2276 6.5520 276.58 249.93 16.69
2277 6.5540 305.83 290.11 17.58
2278 6.5560 361.52 359.34 19.04
2279 6.5580 524.83 496.66 22.95
2280 6.5600 936.54 788.20 30.43
2281 6.5620 1726.87 1339.35 41.54
2282 6.5640 2296.94 1972.67 48.11
2283 6.5660 1858.04 1821.61 42.89
2284 6.5680 1018.90 1146.26 31.51
2285 6.5700 561.55 678.10 23.54
2286 6.5720 364.33 444.19 19.03
2287 6.5740 287.83 333.55 16.98
2288 6.5760 249.60 275.36 15.82
2289 6.5780 207.87 240.29 14.45
2290 6.5800 176.45 217.26 13.35
2291 6.5820 158.05 201.31 12.66
2292 6.5840 152.74 189.83 12.47
2293 6.5860 150.80 181.30 12.39
2294 6.5880 151.31 174.80 12.38
2295 6.5900 158.99 169.72 12.64
2296 6.5920 152.73 165.68 12.38
2297 6.5940 146.55 162.41 12.13
2298 6.5960 160.12 159.73 12.72
2299 6.5980 162.60 157.49 12.80
2300 6.6000 153.80 155.61 12.48
2301 6.6020 136.03 154.01 11.73
2302 6.6040 131.89 152.64 11.46
2303 6.6060 132.39 151.45 11.46
2304 6.6080 144.84 150.41 12.08
2305 6.6100 136.54 149.49 11.76
2306 6.6120 125.83 148.68 11.28
2307 6.6140 131.20 147.96 11.50
2308 6.6160 139.68 147.32 11.86
2309 6.6180 136.09 146.73 11.70
2310 6.6200 139.39 146.21 11.88
2311 6.6220 137.79 145.73 11.79
2312 6.6240 139.38 145.29 11.90
2313 6.6260 127.28 144.88 11.37
2314 6.6280 131.03 144.51 11.52
2315 6.6300 126.67 144.16 11.28
2316 6.6320 120.70 143.84 11.01
2317 6.6340 142.47 143.54 12.02
2318 6.6360 122.95 143.26 11.14
2319 6.6380 121.67 143.00 11.06
2320 6.6400 131.34 142.75 11.54
2321 6.6420 142.43 142.52 11.99
2322 6.6440 130.49 142.30 11.45
2323 6.6460 128.59 142.09 11.35
2324 6.6480 128.19 141.89 11.36
2325 6.6500 116.45 141.70 10.86
2326 6.6520 122.20 141.51 11.08
2327 6.6540 117.02 141.34 10.86
2328 6.6560 112.57 141.17 10.64
2329 6.6580 126.14 141.01 11.25
2330 6.6600 129.57 140.85 11.42
2331 6.6620 136.21 140.70 11.74
2332 6.6640 136.35 140.55 11.73
2333 6.6660 137.44 140.41 11.79
2334 6.6680 133.64 140.28 11.61
2335 6.6700 136.04 140.14 11.70
2336 6.6720 133.43 140.01 11.60
2337 6.6740 132.16 139.89 11.53
2338 6.6760 131.81 139.76 11.50
2339 6.6780 118.31 139.64 10.90
2340 6.6800 122.42 139.52 11.12
2341 6.6820 124.57 139.41 11.20
2342 6.6840 119.94 139.30 10.99
2343 6.6860 115.89 139.18 10.81
2344 6.6880 125.44 139.08 11.22
2345 6.6900 140.13 138.97 11.89
2346 6.6920 143.41 138.86 12.00
2347 6.6940 123.71 138.76 11.15
2348 6.6960 122.61 138.66 11.11
2349 6.6980 130.82 138.56 11.48
2350 6.7000 120.60 138.46 11.05
2351 6.7020 131.80 138.36 11.52
2352 6.7040 126.05 137.30 11.26
2353 6.7060 130.74 137.23 11.50
2354 6.7080 125.64 137.16 11.27
2355 6.7100 137.14 137.09 11.78
2356 6.7120 125.34 137.02 11.23
2357 6.7140 122.67 136.95 11.09
2358 6.7160 131.45 136.88 11.50
2359 6.7180 117.06 136.82 10.85
2360 6.7200 126.13 136.74 11.26
2361 6.7220 126.37 136.68 11.27
2362 6.7240 134.13 136.61 11.62
2363 6.7260 128.43 136.54 11.35
2364 6.7280 120.86 136.47 10.98
2365 6.7300 124.04 136.40 11.15
2366 6.7320 115.03 136.33 10.78
2367 6.7340 117.60 136.26 10.93
2368 6.7360 129.29 136.19 11.46
2369 6.7380 120.74 136.12 11.05
2370 6.7400 125.61 136.05 11.27
2371 6.7420 127.70 135.98 11.36
2372 6.7440 129.22 135.91 11.40
2373 6.7460 127.83 135.84 11.27
2374 6.7480 137.50 135.76 11.69
2375 6.7500 121.83 135.70 11.02
2376 6.7520 122.30 135.62 11.09
2377 6.7540 110.67 135.55 10.56
2378 6.7560 122.56 135.48 11.10
2379 6.7580 121.94 135.41 11.05
2380 6.7600 126.65 135.34 11.27
2381 6.7620 132.14 135.27 11.56
2382 6.7640 112.99 135.20 10.68
2383 6.7660 124.64 135.13 11.17
2384 6.7680 123.09 135.06 11.12
2385 6.7700 113.99 134.99 10.71
2386 6.7720 123.29 134.91 11.12
2387 6.7740 123.82 134.84 11.17
2388 6.7760 136.77 134.77 11.79
2389 6.7780 141.19 134.70 11.91
2390 6.7800 123.73 134.63 11.14
2391 6.7820 141.35 134.56 11.92
2392 6.7840 129.70 134.49 11.45
2393 6.7860 138.96 134.41 11.79
2394 6.7880 128.42 134.34 11.35
2395 6.7900 104.65 134.27 10.28
2396 6.7920 119.63 134.20 10.96
2397 6.7940 125.95 134.13 11.28
2398 6.7960 129.84 134.06 11.45
2399 6.7980 129.40 133.99 11.45
2400 6.8000 120.37 133.91 11.01
2401 6.8020 106.00 133.84 10.34
2402 6.8040 123.95 133.77 11.16
2403 6.8060 142.88 133.70 11.99
2404 6.8080 134.56 133.62 11.66
2405 6.8100 133.88 133.55 11.64
2406 6.8120 140.82 133.48 11.92
2407 6.8140 140.36 133.41 11.87
2408 6.8160 143.60 133.34 12.06
2409 6.8180 130.51 133.26 11.50
2410 6.8200 113.58 133.19 10.69
2411 6.8220 111.01 133.12 10.53
2412 6.8240 137.78 133.05 11.82
2413 6.8260 146.65 132.97 12.16
2414 6.8280 162.67 132.90 12.77
2415 6.8300 185.48 132.83 13.63
2416 6.8320 184.98 132.76 13.64
2417 6.8340 203.44 132.68 14.28
2418 6.8360 223.91 132.61 15.01
2419 6.8380 220.69 132.54 14.89
2420 6.8400 169.10 132.46 12.97
2421 6.8420 137.95 132.39 11.72
2422 6.8440 136.88 132.32 11.72
2423 6.8460 137.51 132.25 11.79
2424 6.8480 137.38 132.17 11.74
2425 6.8500 125.31 132.10 11.20
2426 6.8520 128.19 132.03 11.33
2427 6.8540 116.36 131.95 10.84
2428 6.8560 128.03 131.88 11.31
2429 6.8580 131.12 131.81 11.46
2430 6.8600 122.55 131.73 11.07
2431 6.8620 129.12 131.66 11.40
2432 6.8640 134.44 131.59 11.58
2433 6.8660 131.58 131.51 11.48
2434 6.8680 123.11 131.44 11.07
2435 6.8700 117.91 131.37 10.86
2436 6.8720 127.61 131.29 11.26
2437 6.8740 126.67 131.22 11.30
2438 6.8760 113.03 131.15 10.72
2439 6.8780 119.46 131.07 11.01
2440 6.8800 138.57 131.00 11.79
2441 6.8820 139.93 130.93 11.87
2442 6.8840 134.93 130.85 11.64
2443 6.8860 134.18 130.78 11.65
2444 6.8880 138.40 130.71 11.82
2445 6.8900 125.98 130.63 11.27
2446 6.8920 105.59 130.56 10.35
2447 6.8940 115.68 130.48 10.81
2448 6.8960 115.70 130.41 10.79
2449 6.8980 119.14 130.34 10.97
2450 6.9000 124.03 130.26 11.22
2451 6.9020 127.25 130.19 11.31
2452 6.9040 115.44 130.11 10.76
2453 6.9060 104.71 130.04 10.27
2454 6.9080 112.16 129.97 10.61
2455 6.9100 110.16 129.89 10.51
2456 6.9120 118.93 129.82 10.96
2457 6.9140 123.58 129.74 11.19
2458 6.9160 138.58 129.67 11.78
2459 6.9180 132.30 129.60 11.56
2460 6.9200 127.21 129.52 11.33
2461 6.9220 119.68 129.45 10.96
2462 6.9240 128.43 129.37 11.35
2463 6.9260 130.21 129.30 11.45
2464 6.9280 122.25 129.22 11.10
2465 6.9300 111.14 129.15 10.57
2466 6.9320 123.43 129.07 11.11
2467 6.9340 126.38 129.00 11.28
2468 6.9360 135.23 128.93 11.68
2469 6.9380 137.90 128.85 11.80
2470 6.9400 129.23 128.78 11.44
2471 6.9420 128.88 128.70 11.41
2472 6.9440 133.39 128.63 11.58
2473 6.9460 133.55 128.55 11.57
2474 6.9480 122.45 128.48 11.09
2475 6.9500 116.55 128.40 10.85
2476 6.9520 111.89 128.33 10.57
2477 6.9540 102.00 128.26 10.11
2478 6.9560 103.87 128.62 10.20
2479 6.9580 120.79 128.56 11.07
2480 6.9600 121.31 128.50 11.06
2481 6.9620 115.34 128.44 10.81
2482 6.9640 113.56 128.38 10.69
2483 6.9660 105.41 128.32 10.30
2484 6.9680 134.41 128.26 11.64
2485 6.9700 142.60 128.21 11.97
2486 6.9720 131.73 128.15 11.51
2487 6.9740 125.07 128.09 11.26
2488 6.9760 126.45 128.04 11.28
2489 6.9780 116.50 127.99 10.83
2490 6.9800 105.79 127.93 10.33
2491 6.9820 111.82 127.88 10.65
2492 6.9840 119.62 127.83 10.94
2493 6.9860 119.26 127.78 10.94
2494 6.9880 120.54 127.73 11.06
2495 6.9900 119.05 127.69 10.99
2496 6.9920 118.95 127.64 10.95
2497 6.9940 112.72 127.60 10.67
2498 6.9960 104.61 127.56 10.29
2499 6.9980 111.53 127.52 10.59
2500 7.0000 117.75 127.49 10.87
2501 7.0020 109.53 127.45 10.42
2502 7.0040 103.57 127.42 10.13
2503 7.0060 125.31 127.39 11.22
2504 7.0080 124.96 127.37 11.23
2505 7.0100 113.85 127.35 10.70
2506 7.0120 112.25 127.33 10.62
2507 7.0140 116.90 127.32 10.85
2508 7.0160 129.83 127.31 11.47
2509 7.0180 141.68 127.31 11.97
2510 7.0200 124.34 127.31 11.20
2511 7.0220 121.06 127.32 11.06
2512 7.0240 116.57 127.34 10.84
2513 7.0260 103.97 127.37 10.25
2514 7.0280 119.59 127.40 10.99
2515 7.0300 112.30 127.45 10.63
2516 7.0320 110.64 127.50 10.55
2517 7.0340 117.96 127.57 10.93
2518 7.0360 119.21 127.66 10.97
2519 7.0380 124.98 127.76 11.23
2520 7.0400 130.34 127.89 11.43
2521 7.0420 131.23 128.03 11.54
2522 7.0440 118.29 128.20 10.91
2523 7.0460 115.51 128.41 10.76
2524 7.0480 124.93 128.65 11.20
2525 7.0500 132.58 128.93 11.58
2526 7.0520 123.57 129.26 11.16
2527 7.0540 128.77 129.66 11.39
2528 7.0560 134.41 130.13 11.68
2529 7.0580 126.48 130.69 11.30
2530 7.0600 115.29 131.36 10.78
2531 7.0620 112.92 132.18 10.68
2532 7.0640 118.73 133.17 10.98
2533 7.0660 125.47 134.39 11.23
2534 7.0680 144.61 135.91 12.03
2535 7.0700 126.34 137.83 11.23
2536 7.0720 150.06 140.29 12.28
2537 7.0740 143.80 143.49 12.05
2538 7.0760 150.47 147.78 12.31
2539 7.0780 151.99 153.66 12.37
2540 7.0800 159.08 162.01 12.68
2541 7.0820 173.87 174.35 13.25
2542 7.0840 193.70 193.77 14.02
2543 7.0860 212.51 227.51 14.66
2544 7.0880 269.10 294.28 16.41
2545 7.0900 412.74 433.39 20.41
2546 7.0920 651.48 687.84 25.68
2547 7.0940 926.21 942.11 30.49
2548 7.0960 864.94 817.54 29.23
2549 7.0980 522.50 526.56 22.59
2550 7.1000 342.93 341.18 18.44
2551 7.1020 253.86 249.55 15.88
2552 7.1040 209.16 204.95 14.42
2553 7.1060 199.16 180.61 14.12
2554 7.1080 176.34 165.62 13.31
2555 7.1100 175.35 155.67 13.28
2556 7.1120 179.22 148.73 13.42
2557 7.1140 180.66 143.69 13.43
2558 7.1160 179.16 139.93 13.44
2559 7.1180 199.10 137.03 14.15
2560 7.1200 228.41 134.76 15.23
2561 7.1220 249.27 132.93 15.91
2562 7.1240 308.11 131.44 17.66
2563 7.1260 306.29 130.21 17.58
2564 7.1280 254.24 129.17 15.99
2565 7.1300 200.68 128.29 14.18
2566 7.1320 153.65 127.54 12.40
2567 7.1340 152.09 126.88 12.31
2568 7.1360 146.64 126.31 12.12
2569 7.1380 149.32 125.80 12.30
2570 7.1400 148.23 125.35 12.26
2571 7.1420 149.97 124.94 12.28
2572 7.1440 129.76 124.57 11.43
2573 7.1460 128.66 124.24 11.39
2574 7.1480 137.54 123.93 11.79
2575 7.1500 131.31 123.65 11.49
2576 7.1520 117.74 123.39 10.89
2577 7.1540 129.91 123.15 11.47
2578 7.1560 128.49 122.92 11.41
2579 7.1580 125.47 122.71 11.29
2580 7.1600 143.01 122.51 12.01
2581 7.1620 124.83 122.32 11.23
2582 7.1640 121.06 122.14 11.09
2583 7.1660 130.26 121.97 11.45
2584 7.1680 132.23 121.81 11.55
2585 7.1700 137.15 121.65 11.76
2586 7.1720 132.65 121.50 11.56
2587 7.1740 133.31 121.36 11.62
2588 7.1760 144.03 121.22 12.04
2589 7.1780 138.45 121.08 11.82
2590 7.1800 146.36 120.95 12.14
2591 7.1820 167.47 120.83 13.07
2592 7.1840 161.51 120.71 12.83
2593 7.1860 161.36 120.58 12.79
2594 7.1880 184.75 120.47 13.65
2595 7.1900 184.49 120.35 13.65
2596 7.1920 173.94 120.24 13.24
2597 7.1940 172.58 120.13 13.17
2598 7.1960 161.82 120.03 12.78
2599 7.1980 131.19 119.92 11.51
2600 7.2000 157.42 119.82 12.52
2601 7.2020 143.67 119.71 12.00
2602 7.2040 131.96 119.61 11.54
2603 7.2060 144.04 119.51 12.05
2604 7.2080 146.77 119.42 12.12
2605 7.2100 142.81 119.32 11.92
2606 7.2120 143.55 119.22 12.03
2607 7.2140 141.15 119.13 11.91
2608 7.2160 128.04 119.04 11.34
2609 7.2180 126.76 118.94 11.32
2610 7.2200 146.32 118.85 12.10
2611 7.2220 147.67 118.76 12.18
2612 7.2240 120.37 118.67 11.00
2613 7.2260 136.14 118.58 11.73
2614 7.2280 131.20 118.49 11.50
2615 7.2300 126.31 118.41 11.32
2616 7.2320 127.80 118.32 11.37
2617 7.2340 131.92 117.80 11.51
2618 7.2360 127.45 117.72 11.35
2619 7.2380 134.35 117.65 11.61
2620 7.2400 138.14 117.58 11.81
2621 7.2420 135.86 117.50 11.68
2622 7.2440 136.24 117.43 11.72
2623 7.2460 121.98 117.36 11.08
2624 7.2480 138.62 117.28 11.81
2625 7.2500 143.74 117.21 12.02
2626 7.2520 123.96 117.14 11.14
2627 7.2540 127.17 117.06 11.35
2628 7.2560 121.98 116.99 11.11
2629 7.2580 133.00 116.91 11.56
2630 7.2600 122.00 116.84 11.07
2631 7.2620 112.19 116.77 10.58
2632 7.2640 123.67 116.69 11.14
2633 7.2660 113.61 116.62 10.71
2634 7.2680 119.09 116.55 10.97
2635 7.2700 120.43 116.47 11.07
2636 7.2720 127.66 116.40 11.35
2637 7.2740 123.70 116.33 11.16
2638 7.2760 124.78 116.25 11.20
2639 7.2780 121.43 116.18 11.10
2640 7.2800 120.49 116.11 11.05
2641 7.2820 122.71 116.04 11.16
2642 7.2840 132.57 115.96 11.59
2643 7.2860 135.24 115.89 11.69
2644 7.2880 108.08 115.82 10.44
2645 7.2900 107.00 115.74 10.39
2646 7.2920 104.24 115.67 10.23
2647 7.2940 119.36 115.60 10.97
2648 7.2960 126.63 115.52 11.39
2649 7.2980 123.82 115.45 11.23
2650 7.3000 109.07 115.38 10.54
2651 7.3020 115.90 115.31 10.83
2652 7.3040 107.18 115.23 10.40
2653 7.3060 116.26 115.16 10.76
2654 7.3080 126.17 115.09 11.30
2655 7.3100 110.28 115.01 10.57
2656 7.3120 112.75 114.94 10.63
2657 7.3140 114.61 114.87 10.76
2658 7.3160 121.68 114.80 11.06
2659 7.3180 118.94 114.72 10.97
2660 7.3200 105.12 114.65 10.32
2661 7.3220 118.75 114.58 10.92
2662 7.3240 128.40 114.51 11.40
2663 7.3260 104.19 114.43 10.23
2664 7.3280 87.46 114.36 9.38
2665 7.3300 98.35 114.29 9.96
2666 7.3320 109.00 114.22 10.45
2667 7.3340 103.49 114.15 10.21
2668 7.3360 107.05 114.07 10.37
2669 7.3380 114.49 114.00 10.75
2670 7.3400 104.50 113.93 10.28
2671 7.3420 96.98 113.86 9.89
2672 7.3440 98.24 113.79 9.92
2673 7.3460 116.05 113.71 10.79
2674 7.3480 115.50 113.64 10.80
2675 7.3500 115.30 113.57 10.76
2676 7.3520 96.03 113.50 9.81
2677 7.3540 103.70 113.43 10.15
2678 7.3560 109.43 113.35 10.47
2679 7.3580 97.13 113.28 9.84
2680 7.3600 99.58 113.21 9.96
2681 7.3620 116.89 113.14 10.83
2682 7.3640 113.13 113.07 10.65
2683 7.3660 118.97 113.00 10.97
2684 7.3680 114.37 112.92 10.77
2685 7.3700 116.33 112.85 10.83
2686 7.3720 116.44 112.78 10.87
2687 7.3740 108.43 112.71 10.46
2688 7.3760 118.89 112.64 10.92
2689 7.3780 115.16 112.57 10.78
2690 7.3800 117.79 112.50 10.89
2691 7.3820 106.15 112.42 10.34
2692 7.3840 98.94 112.35 9.99
2693 7.3860 94.03 112.28 9.73
2694 7.3880 99.74 112.21 10.04
2695 7.3900 103.99 112.14 10.27
2696 7.3920 96.98 112.07 9.89
2697 7.3940 111.00 112.00 10.58
2698 7.3960 110.33 111.93 10.54
2699 7.3980 107.96 113.65 10.41
2700 7.4000 119.25 113.64 10.96
2701 7.4020 129.88 113.62 11.47
2702 7.4040 120.37 113.61 11.02
2703 7.4060 100.61 113.60 10.07
2704 7.4080 104.16 113.59 10.24
2705 7.4100 110.82 113.59 10.58
2706 7.4120 126.68 113.59 11.37
2707 7.4140 128.50 113.59 11.39
2708 7.4160 113.75 113.60 10.71
2709 7.4180 111.85 113.61 10.62
2710 7.4200 123.40 113.63 11.12
2711 7.4220 125.01 113.65 11.23
2712 7.4240 118.76 113.68 11.01
2713 7.4260 103.70 113.71 10.27
2714 7.4280 113.44 113.74 10.70
2715 7.4300 114.63 113.78 10.81
2716 7.4320 112.29 113.83 10.66
2717 7.4340 102.03 113.89 10.12
2718 7.4360 104.68 113.95 10.26
2719 7.4380 128.16 114.03 11.35
2720 7.4400 123.30 114.11 11.12
2721 7.4420 111.49 114.20 10.58
2722 7.4440 117.44 114.30 10.88
2723 7.4460 109.91 114.42 10.56
2724 7.4480 125.87 114.54 11.26
2725 7.4500 131.58 114.68 11.52
2726 7.4520 120.96 114.84 11.07
2727 7.4540 122.89 115.01 11.16
2728 7.4560 125.08 115.21 11.23
2729 7.4580 118.46 115.42 10.95
2730 7.4600 125.45 115.65 11.26
2731 7.4620 132.41 115.91 11.58
2732 7.4640 114.15 116.20 10.74
2733 7.4660 140.39 119.38 11.87
2734 7.4680 133.51 119.82 11.60
2735 7.4700 118.53 120.31 10.94
2736 7.4720 117.83 120.84 10.93
2737 7.4740 131.41 121.42 11.56
2738 7.4760 134.62 122.07 11.66
2739 7.4780 135.89 122.79 11.72
2740 7.4800 130.21 123.59 11.44
2741 7.4820 120.44 124.48 10.94
2742 7.4840 122.95 125.47 11.12
2743 7.4860 152.06 126.59 12.39
2744 7.4880 154.02 127.85 12.52
2745 7.4900 145.07 129.28 12.11
2746 7.4920 143.42 130.91 12.02
2747 7.4940 140.45 132.77 11.88
2748 7.4960 149.47 134.92 12.24
2749 7.4980 167.32 137.41 12.96
2750 7.5000 174.11 140.33 13.26
2751 7.5020 178.25 143.77 13.41
2752 7.5040 186.16 147.86 13.68
2753 7.5060 211.80 152.79 14.64
2754 7.5080 215.64 158.81 14.77
2755 7.5100 228.40 166.24 15.21
2756 7.5120 260.29 175.59 16.30
2757 7.5140 282.09 187.56 16.97
2758 7.5160 327.06 203.25 18.21
2759 7.5180 388.70 224.36 19.81
2760 7.5200 419.20 253.66 20.54
2761 7.5220 395.70 295.95 19.92
2762 7.5240 381.99 360.23 19.56
2763 7.5260 459.55 465.77 21.54
2764 7.5280 633.77 660.36 25.14
2765 7.5300 1096.29 1056.72 32.81
2766 7.5320 2112.29 1840.43 45.50
2767 7.5340 3114.70 2983.76 55.97
2768 7.5360 2764.69 3215.74 52.64
2769 7.5380 1687.21 2130.12 41.00
2770 7.5400 972.22 1221.29 31.21
2771 7.5420 675.61 742.97 26.08
2772 7.5440 496.10 510.73 22.32
2773 7.5460 374.98 389.57 19.41
2774 7.5480 317.29 318.36 17.86
2775 7.5500 293.65 272.89 17.20
2776 7.5520 271.87 242.35 16.56
2777 7.5540 252.60 221.18 15.99
2778 7.5560 227.11 206.21 15.16
2779 7.5580 233.61 195.54 15.38
2780 7.5600 235.32 188.00 15.42
2781 7.5620 211.76 182.84 14.61
2782 7.5640 210.99 179.58 14.60
2783 7.5660 223.04 177.95 15.03
2784 7.5680 210.00 177.76 14.58
2785 7.5700 201.25 178.98 14.23
2786 7.5720 198.45 181.62 14.09
2787 7.5740 211.91 185.81 14.59
2788 7.5760 233.69 191.79 15.33
2789 7.5780 237.56 199.91 15.52
2790 7.5800 263.77 210.74 16.27
2791 7.5820 269.92 225.12 16.48
2792 7.5840 299.78 244.31 17.40
2793 7.5860 325.81 270.23 18.14
2794 7.5880 357.61 306.01 18.96
2795 7.5900 455.24 356.85 21.46
2796 7.5920 516.91 431.81 22.89
2797 7.5940 655.81 548.34 25.77
2798 7.5960 867.25 745.71 29.64
2799 7.5980 1269.91 1121.77 35.84
2800 7.6000 2135.09 1893.81 46.31
2801 7.6020 3763.01 3361.70 61.56
2802 7.6040 5271.85 5118.96 72.92
2803 7.6060 4539.91 4747.33 67.07
2804 7.6080 2468.36 2898.78 48.92
2805 7.6100 1221.97 1632.79 34.54
2806 7.6120 710.16 992.87 26.53
2807 7.6140 495.51 677.82 22.25
2808 7.6160 364.55 506.67 19.09
2809 7.6180 289.22 402.43 17.05
2810 7.6200 252.30 333.88 15.95
2811 7.6220 210.99 286.42 14.59
2812 7.6240 191.11 252.28 13.90
2813 7.6260 192.54 226.91 13.97
2814 7.6280 184.12 207.57 13.65
2815 7.6300 164.69 192.47 12.89
2816 7.6320 152.73 180.47 12.41
2817 7.6340 153.67 170.76 12.43
2818 7.6360 139.16 162.80 11.81
2819 7.6380 130.25 156.18 11.42
2820 7.6400 128.16 150.62 11.34
2821 7.6420 128.39 145.89 11.37
2822 7.6440 127.31 141.84 11.33
2823 7.6460 123.53 138.35 11.15
2824 7.6480 142.12 135.30 11.93
2825 7.6500 118.51 132.63 10.89
2826 7.6520 125.32 130.28 11.27
2827 7.6540 118.26 128.19 10.95
2828 7.6560 112.22 126.32 10.66
2829 7.6580 118.88 124.65 10.89
2830 7.6600 110.90 123.15 10.55
2831 7.6620 100.88 121.79 10.12
2832 7.6640 116.15 120.55 10.83
2833 7.6660 125.49 119.42 11.28
2834 7.6680 130.05 118.39 11.50
2835 7.6700 117.45 117.44 10.87
2836 7.6720 108.16 116.57 10.40
2837 7.6740 117.51 115.77 10.89
2838 7.6760 105.05 113.31 10.29
2839 7.6780 106.15 112.67 10.30
2840 7.6800 118.62 112.07 10.88
2841 7.6820 100.29 111.51 10.00
2842 7.6840 96.20 110.99 9.87
2843 7.6860 109.47 110.50 10.44
2844 7.6880 106.63 110.04 10.33
2845 7.6900 109.83 109.61 10.56
2846 7.6920 116.69 109.21 10.90
2847 7.6940 94.95 108.82 9.82
2848 7.6960 107.10 108.46 10.34
2849 7.6980 119.18 108.12 10.95
2850 7.7000 101.60 107.79 10.12
2851 7.7020 102.24 107.48 10.17
2852 7.7040 104.51 107.19 10.21
2853 7.7060 112.95 106.91 10.69
2854 7.7080 95.79 106.64 9.84
2855 7.7100 91.16 106.38 9.62
2856 7.7120 94.50 106.14 9.80
2857 7.7140 110.10 105.90 10.54
2858 7.7160 125.13 105.68 11.26
2859 7.7180 127.39 105.46 11.36
2860 7.7200 113.58 105.25 10.70
2861 7.7220 126.97 105.05 11.34
2862 7.7240 130.43 104.85 11.49
2863 7.7260 122.86 104.66 11.12
2864 7.7280 124.88 104.48 11.17
2865 7.7300 122.20 104.30 11.08
2866 7.7320 105.36 104.13 10.31
2867 7.7340 102.11 103.97 10.16
2868 7.7360 106.00 103.81 10.33
2869 7.7380 111.61 103.65 10.59
2870 7.7400 105.82 103.50 10.34
2871 7.7420 109.04 103.35 10.44
2872 7.7440 107.35 100.36 10.40
2873 7.7460 105.56 100.30 10.33
2874 7.7480 97.11 100.24 9.92
2875 7.7500 95.87 100.18 9.84
2876 7.7520 97.65 100.12 9.90
2877 7.7540 95.83 100.06 9.76
2878 7.7560 97.11 100.00 9.90
2879 7.7580 90.99 99.93 9.61
2880 7.7600 99.90 99.87 10.03
2881 7.7620 100.26 99.81 10.06
2882 7.7640 95.72 99.75 9.81
2883 7.7660 92.63 99.69 9.61
2884 7.7680 95.98 99.63 9.83
2885 7.7700 104.44 99.57 10.26
2886 7.7720 114.70 99.51 10.73
2887 7.7740 107.55 99.45 10.41
2888 7.7760 101.92 99.39 10.14
2889 7.7780 94.94 99.33 9.84
2890 7.7800 94.54 99.27 9.81
2891 7.7820 85.93 99.21 9.33
2892 7.7840 93.75 99.15 9.68
2893 7.7860 103.38 99.09 10.16
2894 7.7880 110.00 99.03 10.56
2895 7.7900 107.02 98.97 10.38
2896 7.7920 89.83 98.91 9.49
2897 7.7940 86.64 98.85 9.35
2898 7.7960 97.15 98.79 9.90
2899 7.7980 104.67 98.73 10.23
2900 7.8000 94.92 98.67 9.74
2901 7.8020 96.89 98.61 9.86
2902 7.8040 94.54 98.55 9.77
2903 7.8060 95.22 98.49 9.85
2904 7.8080 93.08 98.43 9.77
2905 7.8100 91.71 98.37 9.64
2906 7.8120 93.87 98.31 9.68
2907 7.8140 92.11 98.25 9.55
2908 7.8160 97.35 98.19 9.90
2909 7.8180 107.24 98.13 10.40
2910 7.8200 103.94 98.08 10.26
2911 7.8220 96.39 98.02 9.86
2912 7.8240 108.58 97.96 10.44
2913 7.8260 108.11 97.90 10.42
2914 7.8280 100.95 97.84 10.09
2915 7.8300 87.51 97.78 9.41
2916 7.8320 82.70 97.72 9.18
2917 7.8340 97.56 97.66 9.95
2918 7.8360 102.68 97.61 10.22
2919 7.8380 100.91 97.55 10.09
2920 7.8400 103.86 97.49 10.26
2921 7.8420 102.40 97.43 10.17
2922 7.8440 104.78 97.37 10.27
2923 7.8460 101.58 97.31 10.12
2924 7.8480 92.59 97.26 9.69
2925 7.8500 78.24 97.20 8.93
2926 7.8520 99.99 97.14 9.95
2927 7.8540 95.04 97.08 9.75
2928 7.8560 88.79 97.02 9.48
2929 7.8580 102.23 96.97 10.18
2930 7.8600 108.44 96.91 10.48
2931 7.8620 110.97 96.85 10.63
2932 7.8640 100.78 96.79 10.10
2933 7.8660 100.83 96.74 10.10
2934 7.8680 94.86 96.68 9.87
2935 7.8700 96.99 96.62 9.90
2936 7.8720 90.48 96.56 9.57
2937 7.8740 90.86 96.51 9.57
2938 7.8760 98.84 96.45 10.01
2939 7.8780 103.37 96.39 10.20
2940 7.8800 101.73 96.34 10.15
2941 7.8820 96.72 96.28 9.87
2942 7.8840 83.35 96.22 9.15
2943 7.8860 102.71 96.16 10.17
2944 7.8880 89.01 96.11 9.46
2945 7.8900 83.08 96.05 9.15
2946 7.8920 85.98 95.99 9.29
2947 7.8940 93.49 95.94 9.69
2948 7.8960 89.25 95.88 9.51
2949 7.8980 87.15 95.82 9.38
2950 7.9000 91.06 95.77 9.56
2951 7.9020 90.50 95.71 9.53
2952 7.9040 105.39 95.66 10.32
2953 7.9060 96.87 95.60 9.88
2954 7.9080 97.35 95.54 9.86
2955 7.9100 93.04 95.49 9.62
2956 7.9120 100.06 95.43 10.07
2957 7.9140 88.38 95.38 9.47
2958 7.9160 79.98 95.32 8.98
2959 7.9180 91.37 95.26 9.58
2960 7.9200 87.79 95.21 9.42
2961 7.9220 90.35 95.15 9.46
2962 7.9240 91.67 95.10 9.57
2963 7.9260 95.31 95.04 9.80
2964 7.9280 91.95 94.99 9.62
2965 7.9300 97.92 94.93 9.92
2966 7.9320 89.54 94.88 9.47
2967 7.9340 96.86 94.82 9.87
2968 7.9360 91.36 94.76 9.61
2969 7.9380 95.64 94.71 9.87
2970 7.9400 103.76 94.65 10.28
2971 7.9420 112.91 94.60 10.70
2972 7.9440 94.64 94.54 9.76
2973 7.9460 84.12 94.49 9.18
2974 7.9480 95.29 94.43 9.80
2975 7.9500 101.64 94.38 10.07
2976 7.9520 83.59 94.33 9.12
2977 7.9540 88.78 94.27 9.47
2978 7.9560 94.50 94.22 9.81
2979 7.9580 99.24 94.16 9.99
2980 7.9600 104.38 94.11 10.21
2981 7.9620 107.71 94.05 10.40
2982 7.9640 112.66 94.00 10.66
2983 7.9660 124.07 93.94 11.18
2984 7.9680 109.17 93.89 10.47
2985 7.9700 106.59 93.84 10.32
2986 7.9720 108.19 93.78 10.41
2987 7.9740 103.86 93.73 10.26
2988 7.9760 92.55 93.67 9.68
2989 7.9780 90.55 93.62 9.59
2990 7.9800 96.64 93.57 9.88
2991 7.9820 94.46 93.51 9.76
2992 7.9840 105.82 93.46 10.31
2993 7.9860 98.45 93.41 9.93
2994 7.9880 90.00 93.35 9.48
2995 7.9900 89.81 93.30 9.49
2996 7.9920 101.78 93.25 10.15
2997 7.9940 95.91 93.19 9.81
2998 7.9960 92.00 93.14 9.55
2999 7.9980 104.91 93.09 10.27
3000 8.0000 81.84 93.03 9.47
3001 8.0020 88.98 92.98 9.89
3002 8.0040 85.02 92.93 9.65
3003 8.0060 102.76 92.87 10.62
3004 8.0080 100.64 92.82 10.52
3005 8.0100 92.13 92.77 10.07
3006 8.0120 106.32 92.72 10.81
3007 8.0140 102.89 92.66 10.63
3008 8.0160 95.76 92.61 10.25
3009 8.0180 84.91 92.56 9.63
3010 8.0200 111.27 92.51 11.05
3011 8.0220 90.41 92.45 9.96
3012 8.0240 87.16 92.40 9.77
3013 8.0260 102.75 92.35 10.63
3014 8.0280 94.18 92.30 10.17
3015 8.0300 81.90 92.24 9.49
3016 8.0320 85.65 92.19 9.68
3017 8.0340 106.98 92.14 10.84
3018 8.0360 93.24 92.09 10.10
3019 8.0380 76.70 92.04 9.17
3020 8.0400 96.36 91.98 10.29
3021 8.0420 90.94 91.93 9.96
3022 8.0440 104.37 91.88 10.72
3023 8.0460 97.84 91.83 10.37
3024 8.0480 102.56 91.78 10.62
3025 8.0500 94.08 91.73 10.16
3026 8.0520 107.53 91.68 10.85
3027 8.0540 75.05 91.62 9.07
3028 8.0560 83.43 91.57 9.53
3029 8.0580 96.11 91.52 10.30
3030 8.0600 90.60 91.47 9.99
3031 8.0620 87.58 91.42 9.81
3032 8.0640 94.84 91.37 10.21
3033 8.0660 79.86 91.32 9.35
3034 8.0680 90.69 91.27 9.99
3035 8.0700 88.88 91.22 9.87
3036 8.0720 98.37 91.17 10.39
3037 8.0740 85.33 91.12 9.67
3038 8.0760 100.50 91.06 10.50
3039 8.0780 89.44 91.01 9.90
3040 8.0800 105.03 90.96 10.73
3041 8.0820 85.52 90.91 9.69
3042 8.0840 90.00 90.86 9.95
3043 8.0860 83.20 90.81 9.55
3044 8.0880 80.86 90.76 9.43
3045 8.0900 84.15 90.71 9.59
3046 8.0920 97.08 90.66 10.29
3047 8.0940 82.20 90.61 9.51
3048 8.0960 89.08 90.56 9.89
3049 8.0980 98.30 90.51 10.40
3050 8.1000 109.30 90.46 10.96
3051 8.1020 87.42 90.41 9.81
3052 8.1040 83.99 90.36 9.61
3053 8.1060 76.56 90.31 9.16
3054 8.1080 78.32 90.26 9.28
3055 8.1100 66.67 90.22 8.56
3056 8.1120 78.13 90.17 9.23
3057 8.1140 95.34 90.12 10.23
3058 8.1160 85.15 90.07 9.66
3059 8.1180 96.14 90.02 10.29
3060 8.1200 83.43 89.97 9.58
3061 8.1220 78.35 89.92 9.26
3062 8.1240 99.01 89.87 10.42
3063 8.1260 82.33 89.82 9.48
3064 8.1280 74.88 89.77 9.08
3065 8.1300 81.76 89.72 9.48
3066 8.1320 97.11 89.68 10.33
3067 8.1340 81.95 89.63 9.47
3068 8.1360 91.76 89.58 10.03
3069 8.1380 86.25 89.53 9.71
3070 8.1400 91.63 89.48 10.01
3071 8.1420 85.34 89.43 9.67
3072 8.1440 95.44 89.39 10.24
3073 8.1460 87.75 89.34 9.81
3074 8.1480 76.09 89.29 9.13
3075 8.1500 86.59 89.24 9.74
3076 8.1520 79.01 89.19 9.31
3077 8.1540 84.21 89.14 9.61
3078 8.1560 81.26 89.10 9.43
3079 8.1580 89.10 89.05 9.89
3080 8.1600 99.40 89.00 10.44
3081 8.1620 92.53 88.95 10.06
3082 8.1640 95.06 88.91 10.21
3083 8.1660 83.96 88.86 9.60
3084 8.1680 87.74 88.81 9.81
3085 8.1700 80.80 88.76 9.40
3086 8.1720 87.39 88.72 9.79
3087 8.1740 79.61 88.67 9.35
3088 8.1760 76.04 88.62 9.14
3089 8.1780 76.40 88.57 9.15
3090 8.1800 77.33 88.53 9.20
3091 8.1820 77.62 88.48 9.21
3092 8.1840 87.72 88.43 9.81
3093 8.1860 88.02 88.39 9.82
3094 8.1880 74.38 88.34 9.03
3095 8.1900 72.22 88.29 8.90
3096 8.1920 81.22 88.25 9.43
3097 8.1940 81.32 88.20 9.44
3098 8.1960 69.66 88.15 8.71
3099 8.1980 92.90 88.11 10.09
3100 8.2000 95.10 88.06 10.20
3101 8.2020 85.63 88.01 9.68
3102 8.2040 95.48 87.97 10.22
3103 8.2060 92.30 87.92 10.04
3104 8.2080 93.98 87.87 10.13
3105 8.2100 111.34 87.83 11.03
3106 8.2120 88.08 87.78 9.81
3107 8.2140 95.13 87.74 10.22
3108 8.2160 84.44 87.69 9.62
3109 8.2180 84.89 87.64 9.61
3110 8.2200 95.02 87.60 10.19
3111 8.2220 85.09 87.55 9.65
3112 8.2240 74.14 87.51 9.00
3113 8.2260 81.78 87.46 9.47
3114 8.2280 77.22 87.42 9.19
3115 8.2300 78.89 87.37 9.28
3116 8.2320 84.09 87.33 9.58
3117 8.2340 98.75 87.28 10.40
3118 8.2360 93.26 87.23 10.09
3119 8.2380 97.44 87.19 10.27
3120 8.2400 75.19 87.14 9.04
3121 8.2420 79.61 87.10 9.32
3122 8.2440 84.56 87.05 9.62
3123 8.2460 97.09 87.01 10.31
3124 8.2480 82.52 86.96 9.49
3125 8.2500 91.62 86.92 10.02
3126 8.2520 96.18 86.87 10.24
3127 8.2540 71.68 86.83 8.85
3128 8.2560 82.62 86.79 9.50
3129 8.2580 87.80 86.74 9.79
3130 8.2600 103.18 86.70 10.56
3131 8.2620 93.80 86.65 10.06
3132 8.2640 69.38 86.61 8.72
3133 8.2660 82.01 86.56 9.48
3134 8.2680 83.22 86.52 9.54
3135 8.2700 71.62 86.47 8.83
3136 8.2720 87.30 86.43 9.76
3137 8.2740 98.78 86.39 10.40
3138 8.2760 100.10 86.34 10.46
3139 8.2780 82.17 86.30 9.48
3140 8.2800 74.94 86.26 9.06
3141 8.2820 79.41 86.21 9.32
3142 8.2840 87.76 86.17 9.78
3143 8.2860 82.41 86.12 9.47
3144 8.2880 79.42 86.08 9.31
3145 8.2900 73.39 86.04 8.96
3146 8.2920 83.47 85.99 9.54
3147 8.2940 100.45 85.95 10.49
3148 8.2960 90.76 85.91 9.98
3149 8.2980 81.04 85.86 9.42
3150 8.3000 68.15 85.82 8.61
3151 8.3020 83.42 85.78 9.54
3152 8.3040 80.20 86.36 9.37
3153 8.3060 91.77 86.34 10.02
3154 8.3080 87.13 86.32 9.76
3155 8.3100 78.39 86.29 9.26
3156 8.3120 91.23 86.27 9.99
3157 8.3140 104.87 86.25 10.71
3158 8.3160 89.51 86.23 9.91
3159 8.3180 90.93 86.22 9.99
3160 8.3200 79.12 86.20 9.31
3161 8.3220 76.48 86.18 9.13
3162 8.3240 91.22 86.17 9.99
3163 8.3260 84.39 86.16 9.61
3164 8.3280 71.80 86.15 8.86
3165 8.3300 96.38 86.14 10.28
3166 8.3320 80.73 86.13 9.39
3167 8.3340 91.05 86.13 9.99
3168 8.3360 95.75 86.12 10.23
3169 8.3380 95.31 86.12 10.21
3170 8.3400 93.12 86.12 10.10
3171 8.3420 86.31 86.13 9.71
3172 8.3440 91.06 86.14 9.98
3173 8.3460 92.51 86.15 10.07
3174 8.3480 85.82 86.16 9.69
3175 8.3500 100.57 86.70 10.49
3176 8.3520 81.89 86.73 9.46
3177 8.3540 79.14 86.78 9.30
3178 8.3560 84.93 86.83 9.63
3179 8.3580 91.08 86.88 10.00
3180 8.3600 91.58 86.94 10.01
3181 8.3620 91.32 87.01 9.99
3182 8.3640 99.67 87.09 10.45
3183 8.3660 110.19 87.92 10.99
3184 8.3680 93.23 88.04 10.10
3185 8.3700 89.50 88.17 9.90
3186 8.3720 100.52 88.31 10.50
3187 8.3740 96.42 88.46 10.28
3188 8.3760 82.13 88.64 9.47
3189 8.3780 93.93 88.83 10.13
3190 8.3800 108.54 89.04 10.90
3191 8.3820 92.70 89.27 10.08
3192 8.3840 91.05 89.53 9.99
3193 8.3860 84.29 89.82 9.60
3194 8.3880 85.68 90.14 9.69
3195 8.3900 80.78 90.50 9.39
3196 8.3920 91.29 90.91 9.97
3197 8.3940 88.74 91.36 9.87
3198 8.3960 97.10 91.88 10.32
3199 8.3980 81.60 92.46 9.45
3200 8.4000 87.38 93.13 9.79
3201 8.4020 87.79 93.90 9.80
3202 8.4040 85.87 94.78 9.69
3203 8.4060 100.93 95.82 10.51
3204 8.4080 101.69 97.03 10.55
3205 8.4100 100.67 98.46 10.50
3206 8.4120 98.02 100.18 10.35
3207 8.4140 100.00 102.26 10.46
3208 8.4160 102.89 104.82 10.60
3209 8.4180 92.32 108.00 10.04
3210 8.4200 108.45 112.04 10.88
3211 8.4220 105.64 117.29 10.73
3212 8.4240 121.52 124.27 11.53
3213 8.4260 127.31 133.85 11.81
3214 8.4280 147.58 147.49 12.71
3215 8.4300 178.03 167.81 13.94
3216 8.4320 210.08 200.05 15.13
3217 8.4340 257.04 255.99 16.76
3218 8.4360 354.98 363.46 19.55
3219 8.4380 655.12 577.78 26.56
3220 8.4400 1111.61 943.24 34.86
3221 8.4420 1240.13 1167.23 36.76
3222 8.4440 801.16 865.06 29.51
3223 8.4460 466.78 526.20 22.55
3224 8.4480 323.78 339.77 18.82
3225 8.4500 239.56 247.18 16.18
3226 8.4520 203.45 198.83 14.92
3227 8.4540 176.77 171.14 13.91
3228 8.4560 168.46 154.19 13.58
3229 8.4580 178.34 143.53 13.97
3230 8.4600 158.22 136.87 13.15
3231 8.4620 164.19 133.03 13.41
3232 8.4640 169.29 131.35 13.62
3233 8.4660 179.45 131.53 14.01
3234 8.4680 148.38 133.55 12.75
3235 8.4700 165.43 137.61 13.46
3236 8.4720 163.27 144.22 13.36
3237 8.4740 181.11 154.36 14.08
3238 8.4760 215.19 169.84 15.34
3239 8.4780 241.69 194.15 16.26
3240 8.4800 281.46 234.86 17.52
3241 8.4820 370.21 309.79 20.10
3242 8.4840 524.94 457.09 23.85
3243 8.4860 886.34 729.38 31.09
3244 8.4880 1162.17 1017.93 35.66
3245 8.4900 979.68 897.48 32.61
3246 8.4920 597.65 610.42 25.48
3247 8.4940 448.51 456.54 22.11
3248 8.4960 451.73 424.18 22.24
3249 8.4980 601.63 496.19 25.58
3250 8.5000 1039.69 710.92 33.71
3251 8.5020 1374.26 1117.29 38.74
3252 8.5040 1316.60 1401.85 37.90
3253 8.5060 898.52 1059.17 31.13
3254 8.5080 476.17 641.24 22.66
3255 8.5100 283.83 406.46 17.63
3256 8.5120 231.24 287.77 15.88
3257 8.5140 179.19 224.31 13.99
3258 8.5160 158.95 186.71 13.18
3259 8.5180 146.59 162.44 12.64
3260 8.5200 121.02 145.85 11.51
3261 8.5220 132.62 133.98 12.05
3262 8.5240 114.79 125.20 11.22
3263 8.5260 121.28 118.50 11.52
3264 8.5280 130.31 113.25 11.94
3265 8.5300 113.78 109.08 11.15
3266 8.5320 130.23 105.68 11.94
3267 8.5340 123.24 102.89 11.62
3268 8.5360 120.15 100.55 11.46
3269 8.5380 128.60 98.57 11.87
3270 8.5400 121.55 96.89 11.52
3271 8.5420 92.55 95.43 10.06
3272 8.5440 95.49 94.17 10.22
3273 8.5460 104.51 93.06 10.67
3274 8.5480 110.96 92.09 10.96
3275 8.5500 81.34 91.22 9.42
3276 8.5520 94.69 90.45 10.17
3277 8.5540 88.59 89.75 9.84
3278 8.5560 87.72 89.13 9.78
3279 8.5580 77.82 88.56 9.21
3280 8.5600 74.94 88.05 9.02
3281 8.5620 85.00 87.58 9.63
3282 8.5640 93.52 87.15 10.11
3283 8.5660 85.75 86.75 9.69
3284 8.5680 81.97 86.38 9.47
3285 8.5700 95.75 86.04 10.24
3286 8.5720 88.88 85.73 9.85
3287 8.5740 70.12 85.44 8.74
3288 8.5760 75.04 85.16 9.06
3289 8.5780 72.01 84.91 8.87
3290 8.5800 80.04 84.67 9.36
3291 8.5820 83.47 83.83 9.55
3292 8.5840 72.45 83.64 8.91
3293 8.5860 74.67 83.45 9.02
3294 8.5880 77.39 83.28 9.19
3295 8.5900 72.33 83.11 8.87
3296 8.5920 70.22 82.96 8.76
3297 8.5940 68.18 82.81 8.61
3298 8.5960 83.61 82.67 9.52
3299 8.5980 95.18 82.53 10.20
3300 8.6000 75.85 82.40 9.11
3301 8.6020 81.48 82.28 9.44
3302 8.6040 77.45 82.16 9.20
3303 8.6060 75.98 82.05 9.12
3304 8.6080 73.54 81.94 8.96
3305 8.6100 81.11 81.83 9.43
3306 8.6120 77.46 81.73 9.21
3307 8.6140 76.81 81.64 9.18
3308 8.6160 81.60 81.54 9.44
3309 8.6180 91.54 81.45 10.02
3310 8.6200 85.48 81.36 9.66
3311 8.6220 68.72 81.28 8.66
3312 8.6240 75.65 81.19 9.10
3313 8.6260 76.18 81.11 9.12
3314 8.6280 85.42 80.53 9.66
3315 8.6300 71.93 80.47 8.88
3316 8.6320 79.86 80.40 9.33
3317 8.6340 90.72 80.35 9.95
3318 8.6360 84.13 80.29 9.59
3319 8.6380 96.94 80.23 10.31
3320 8.6400 78.24 80.18 9.24
3321 8.6420 83.41 80.12 9.54
3322 8.6440 95.31 79.34 10.21
3323 8.6460 75.23 79.31 9.07
3324 8.6480 80.25 79.28 9.38
3325 8.6500 82.76 79.25 9.52
3326 8.6520 83.07 79.21 9.53
3327 8.6540 74.91 79.18 9.05
3328 8.6560 88.41 79.15 9.84
3329 8.6580 76.84 79.12 9.16
3330 8.6600 90.58 79.09 9.96
3331 8.6620 81.57 79.05 9.44
3332 8.6640 79.61 79.02 9.34
3333 8.6660 74.58 78.99 9.03
3334 8.6680 67.47 78.96 8.58
3335 8.6700 74.00 78.93 8.99
3336 8.6720 74.06 78.90 9.00
3337 8.6740 75.89 78.87 9.11
3338 8.6760 70.41 78.83 8.78
3339 8.6780 79.43 78.80 9.31
3340 8.6800 65.99 78.77 8.47
3341 8.6820 84.89 78.74 9.63
3342 8.6840 73.46 78.71 8.94
3343 8.6860 71.54 78.68 8.85
3344 8.6880 66.96 78.65 8.56
3345 8.6900 67.70 78.62 8.60
3346 8.6920 67.90 78.59 8.61
3347 8.6940 75.13 78.55 9.05
3348 8.6960 82.13 78.52 9.47
3349 8.6980 84.12 78.49 9.59
3350 8.7000 82.15 78.46 9.46
3351 8.7020 80.40 78.43 9.39
3352 8.7040 77.11 78.40 9.18
3353 8.7060 78.42 78.37 9.26
3354 8.7080 86.79 78.34 9.75
3355 8.7100 81.36 78.31 9.44
3356 8.7120 84.93 78.28 9.63
3357 8.7140 84.53 78.25 9.61
3358 8.7160 85.70 78.22 9.67
3359 8.7180 78.08 78.19 9.25
3360 8.7200 81.72 78.16 9.46
3361 8.7220 81.40 78.13 9.44
3362 8.7240 65.77 78.10 8.49
3363 8.7260 64.75 78.07 8.41
3364 8.7280 66.07 78.04 8.46
3365 8.7300 75.02 78.01 9.04
3366 8.7320 91.50 77.98 10.01
3367 8.7340 75.50 77.95 9.09
3368 8.7360 79.96 77.92 9.33
3369 8.7380 80.92 77.89 9.37
3370 8.7400 70.37 77.86 8.77
3371 8.7420 80.38 77.83 9.37
3372 8.7440 88.57 77.80 9.84
3373 8.7460 84.01 77.78 9.58
3374 8.7480 87.06 77.75 9.75
3375 8.7500 75.63 77.72 9.10
3376 8.7520 72.71 77.69 8.92
3377 8.7540 76.77 77.66 9.17
3378 8.7560 76.45 77.63 9.15
3379 8.7580 78.39 77.60 9.24
3380 8.7600 79.02 77.57 9.28
3381 8.7620 67.39 77.54 8.56
3382 8.7640 87.91 77.51 9.79
3383 8.7660 81.76 77.49 9.41
3384 8.7680 59.41 77.46 8.03
3385 8.7700 82.12 77.43 9.50
3386 8.7720 77.67 77.40 9.21
3387 8.7740 72.07 77.37 8.87
3388 8.7760 74.07 77.34 9.01
3389 8.7780 71.94 77.32 8.86
3390 8.7800 74.86 77.29 9.04
3391 8.7820 69.23 77.26 8.70
3392 8.7840 75.29 77.23 9.07
3393 8.7860 67.15 77.20 8.57
3394 8.7880 53.54 77.17 7.64
3395 8.7900 69.91 77.15 8.75
3396 8.7920 67.20 77.12 8.56
3397 8.7940 70.63 77.09 8.78
3398 8.7960 69.41 77.06 8.71
3399 8.7980 68.59 77.04 8.58
3400 8.8000 90.55 77.01 9.94
3401 8.8020 77.61 76.98 9.20
3402 8.8040 89.20 76.95 9.88
3403 8.8060 91.33 76.93 10.00
3404 8.8080 94.26 76.90 10.15
3405 8.8100 87.53 76.87 9.75
3406 8.8120 76.81 76.84 9.17
3407 8.8140 85.03 76.82 9.65
3408 8.8160 84.37 76.79 9.58
3409 8.8180 89.39 76.76 9.85
3410 8.8200 74.55 76.74 9.04
3411 8.8220 72.97 76.71 8.90
3412 8.8240 80.78 76.68 9.36
3413 8.8260 71.38 76.65 8.83
3414 8.8280 74.66 76.63 9.03
3415 8.8300 69.07 76.60 8.68
3416 8.8320 69.45 76.57 8.70
3417 8.8340 79.04 76.55 9.29
3418 8.8360 83.54 76.52 9.56
3419 8.8380 96.42 76.49 10.27
3420 8.8400 89.96 76.47 9.91
3421 8.8420 81.12 76.44 9.42
3422 8.8440 70.33 76.42 8.77
3423 8.8460 79.86 76.39 9.36
3424 8.8480 82.01 76.36 9.48
3425 8.8500 72.72 76.34 8.90
3426 8.8520 63.60 76.31 8.30
3427 8.8540 95.03 76.28 10.20
3428 8.8560 94.16 76.26 10.15
3429 8.8580 75.01 76.23 9.06
3430 8.8600 71.61 76.21 8.84
3431 8.8620 72.56 76.18 8.92
3432 8.8640 76.99 76.16 9.19
3433 8.8660 71.64 76.13 8.84
3434 8.8680 84.93 76.10 9.65
3435 8.8700 81.49 76.08 9.45
3436 8.8720 81.70 76.05 9.45
3437 8.8740 68.27 76.03 8.64
3438 8.8760 75.74 76.00 9.10
3439 8.8780 68.05 75.98 8.62
3440 8.8800 65.04 75.95 8.43
3441 8.8820 83.57 75.93 9.57
3442 8.8840 90.25 75.90 9.95
3443 8.8860 83.38 75.88 9.55
3444 8.8880 82.78 75.85 9.51
3445 8.8900 72.28 75.83 8.90
3446 8.8920 78.21 75.80 9.25
3447 8.8940 76.35 75.78 9.13
3448 8.8960 80.73 75.75 9.37
3449 8.8980 76.90 75.73 9.19
3450 8.9000 76.39 75.70 9.14
3451 8.9020 80.83 75.68 9.39
3452 8.9040 82.50 75.65 9.46
3453 8.9060 61.32 75.63 8.18
3454 8.9080 76.70 75.60 9.16
3455 8.9100 88.05 75.58 9.83
3456 8.9120 73.74 75.55 8.99
3457 8.9140 61.05 75.53 8.17
3458 8.9160 62.73 75.51 8.28
3459 8.9180 63.47 75.48 8.33
3460 8.9200 72.66 75.46 8.91
3461 8.9220 81.11 75.43 9.41
3462 8.9240 68.12 75.41 8.63
3463 8.9260 80.40 75.39 9.37
3464 8.9280 81.32 75.36 9.39
3465 8.9300 79.39 75.34 9.32
3466 8.9320 71.69 75.31 8.85
3467 8.9340 62.70 75.29 8.28
3468 8.9360 76.82 75.27 9.17
3469 8.9380 84.26 75.24 9.59
3470 8.9400 56.84 75.22 7.89
3471 8.9420 71.02 75.20 8.78
3472 8.9440 93.75 75.17 10.12
3473 8.9460 71.51 75.15 8.85
3474 8.9480 75.57 75.13 9.09
3475 8.9500 68.90 75.10 8.67
3476 8.9520 73.41 75.08 8.96
3477 8.9540 69.36 75.06 8.71
3478 8.9560 78.73 75.03 9.28
3479 8.9580 75.64 75.01 9.10
3480 8.9600 74.91 74.99 9.04
3481 8.9620 56.88 74.96 7.85
3482 8.9640 79.07 74.94 9.29
3483 8.9660 72.57 74.92 8.88
3484 8.9680 73.61 74.90 8.97
3485 8.9700 91.39 74.87 10.00
3486 8.9720 72.15 74.85 8.88
3487 8.9740 67.22 74.83 8.56
3488 8.9760 66.21 74.81 8.51
3489 8.9780 82.16 74.78 9.49
3490 8.9800 78.57 74.76 9.27
3491 8.9820 76.46 74.74 9.15
3492 8.9840 78.62 74.72 9.28
3493 8.9860 79.10 74.69 9.30
3494 8.9880 79.13 74.67 9.32
3495 8.9900 74.94 74.65 9.07
3496 8.9920 63.62 74.63 8.35
3497 8.9940 69.33 74.61 8.71
3498 8.9960 78.57 74.58 9.27
3499 8.9980 73.14 74.56 8.94
3500 9.0000 75.26 74.54 9.06
3501 9.0020 74.25 74.52 9.02
3502 9.0040 71.37 74.50 8.84
3503 9.0060 84.03 74.48 9.59
3504 9.0080 75.00 74.45 9.05
3505 9.0100 74.58 74.43 9.02
3506 9.0120 69.12 74.41 8.69
3507 9.0140 70.42 74.39 8.77
3508 9.0160 70.48 74.37 8.78
3509 9.0180 80.02 74.35 9.37
3510 9.0200 90.72 74.33 9.98
3511 9.0220 77.33 74.30 9.21
3512 9.0240 67.08 74.28 8.56
3513 9.0260 73.39 74.26 8.95
3514 9.0280 77.45 74.24 9.21
3515 9.0300 92.12 74.22 10.04
3516 9.0320 78.79 74.20 9.27
3517 9.0340 65.52 74.18 8.46
3518 9.0360 65.11 74.16 8.44
3519 9.0380 71.53 74.14 8.86
3520 9.0400 67.75 74.12 8.62
3521 9.0420 74.86 74.10 9.06
3522 9.0440 81.06 74.07 9.42
3523 9.0460 74.02 74.05 8.99
3524 9.0480 77.53 74.03 9.22
3525 9.0500 71.80 74.01 8.87
3526 9.0520 55.33 73.99 7.78
3527 9.0540 63.60 73.97 8.35
3528 9.0560 75.90 73.95 9.12
3529 9.0580 79.81 73.93 9.35
3530 9.0600 71.01 73.91 8.78
3531 9.0620 57.33 73.89 7.90
3532 9.0640 84.33 73.87 9.61
3533 9.0660 85.89 73.85 9.69
3534 9.0680 76.50 73.83 9.13
3535 9.0700 71.60 73.81 8.85
3536 9.0720 72.80 73.79 8.91
3537 9.0740 66.54 73.77 8.51
3538 9.0760 78.61 73.75 9.26
3539 9.0780 91.08 73.73 9.99
3540 9.0800 74.36 73.71 9.02
3541 9.0820 86.54 73.69 9.73
3542 9.0840 68.86 73.67 8.68
3543 9.0860 71.53 73.66 8.84
3544 9.0880 85.41 73.64 9.65
3545 9.0900 86.70 73.62 9.72
3546 9.0920 84.14 73.60 9.59
3547 9.0940 85.99 73.58 9.70
3548 9.0960 78.52 73.56 9.26
3549 9.0980 80.15 73.54 9.36
3550 9.1000 82.83 73.52 9.51
3551 9.1020 77.36 73.50 9.21
3552 9.1040 76.05 73.48 9.13
3553 9.1060 76.40 73.46 9.14
3554 9.1080 67.46 73.45 8.58
3555 9.1100 86.15 73.43 9.71
3556 9.1120 63.35 73.41 8.32
3557 9.1140 60.32 73.39 8.11
3558 9.1160 87.50 73.37 9.79
3559 9.1180 81.55 73.35 9.44
3560 9.1200 79.95 73.33 9.35
3561 9.1220 68.38 73.32 8.65
3562 9.1240 80.69 74.06 9.40
3563 9.1260 86.55 74.06 9.71
3564 9.1280 78.91 74.07 9.30
3565 9.1300 84.31 74.08 9.60
3566 9.1320 70.51 74.08 8.76
3567 9.1340 85.37 74.09 9.68
3568 9.1360 89.83 74.10 9.93
3569 9.1380 76.90 74.12 9.19
3570 9.1400 74.97 74.13 9.07
3571 9.1420 71.88 74.14 8.87
3572 9.1440 83.90 74.16 9.60
3573 9.1460 83.64 74.18 9.57
3574 9.1480 77.85 74.20 9.22
3575 9.1500 66.49 74.23 8.50
3576 9.1520 85.16 74.25 9.63
3577 9.1540 72.48 74.28 8.91
3578 9.1560 68.36 74.31 8.62
3579 9.1580 72.55 74.34 8.92
3580 9.1600 70.25 74.38 8.77
3581 9.1620 68.41 74.42 8.65
3582 9.1640 74.14 74.46 9.01
3583 9.1660 81.01 74.51 9.40
3584 9.1680 82.33 76.05 9.47
3585 9.1700 70.59 76.15 8.77
3586 9.1720 89.18 76.26 9.86
3587 9.1740 77.64 76.37 9.23
3588 9.1760 72.32 76.50 8.89
3589 9.1780 85.90 76.63 9.71
3590 9.1800 88.07 76.78 9.83
3591 9.1820 74.31 76.93 9.02
3592 9.1840 73.67 77.10 8.98
3593 9.1860 59.62 77.28 8.08
3594 9.1880 68.02 77.47 8.62
3595 9.1900 86.93 77.68 9.76
3596 9.1920 91.44 77.91 10.01
3597 9.1940 69.41 78.16 8.72
3598 9.1960 80.37 78.43 9.39
3599 9.1980 77.71 78.72 9.22
3600 9.2000 74.82 79.04 9.05
3601 9.2020 68.55 79.40 8.66
3602 9.2040 80.76 79.78 9.40
3603 9.2060 81.73 80.21 9.45
3604 9.2080 83.67 80.68 9.57
3605 9.2100 81.81 81.21 9.46
3606 9.2120 79.89 81.79 9.34
3607 9.2140 79.53 82.45 9.33
3608 9.2160 90.56 83.18 9.96
3609 9.2180 80.61 84.01 9.39
3610 9.2200 91.55 84.96 9.99
3611 9.2220 90.95 86.04 10.00
3612 9.2240 92.17 87.29 10.05
3613 9.2260 82.21 88.74 9.46
3614 9.2280 73.73 90.44 8.96
3615 9.2300 101.92 92.46 10.57
3616 9.2320 94.77 94.87 10.19
3617 9.2340 108.22 97.80 10.90
3618 9.2360 102.60 101.41 10.53
3619 9.2380 146.52 105.94 12.66
3620 9.2400 115.12 111.73 11.22
3621 9.2420 123.06 119.32 11.60
3622 9.2440 129.13 129.55 11.87
3623 9.2460 169.85 143.84 13.64
3624 9.2480 176.20 164.63 13.89
3625 9.2500 208.82 196.54 15.12
3626 9.2520 221.47 248.95 15.55
3627 9.2540 302.54 342.39 18.13
3628 9.2560 462.75 522.73 22.40
3629 9.2580 818.49 868.01 29.84
3630 9.2600 1233.52 1279.47 36.76
3631 9.2620 1277.06 1139.59 37.34
3632 9.2640 830.45 707.67 29.97
3633 9.2660 459.85 441.80 22.41
3634 9.2680 361.90 307.96 19.87
3635 9.2700 255.66 238.39 16.74
3636 9.2720 235.17 199.87 16.05
3637 9.2740 208.88 177.76 15.12
3638 9.2760 168.64 165.30 13.59
3639 9.2780 178.56 159.27 13.97
3640 9.2800 184.98 158.11 14.22
3641 9.2820 181.22 161.28 14.07
3642 9.2840 180.45 169.00 14.05
3643 9.2860 220.44 182.20 15.55
3644 9.2880 226.79 202.92 15.77
3645 9.2900 269.16 234.91 17.17
3646 9.2920 316.57 285.33 18.63
3647 9.2940 306.03 368.57 18.29
3648 9.2960 422.65 515.55 21.48
3649 9.2980 591.17 796.34 25.43
3650 9.3000 925.71 1347.92 31.73
3651 9.3020 1641.26 2180.19 42.28
3652 9.3040 2329.24 2279.47 50.49
3653 9.3060 2090.01 1459.94 47.67
3654 9.3080 1228.89 853.30 36.37
3655 9.3100 646.06 541.05 26.44
3656 9.3120 391.95 378.17 20.68
3657 9.3140 281.41 285.99 17.53
3658 9.3160 218.34 229.55 15.46
3659 9.3180 218.21 192.70 15.46
3660 9.3200 163.70 167.40 13.38
3661 9.3220 139.96 149.31 12.36
3662 9.3240 137.13 135.93 12.27
3663 9.3260 111.88 125.78 11.07
3664 9.3280 112.67 117.88 11.11
3665 9.3300 123.53 111.61 11.64
3666 9.3320 104.01 106.56 10.67
3667 9.3340 99.19 102.42 10.43
3668 9.3360 103.03 98.99 10.61
3669 9.3380 88.41 96.11 9.82
3670 9.3400 87.00 93.66 9.76
3671 9.3420 94.51 91.57 10.16
3672 9.3440 98.52 89.77 10.39
3673 9.3460 81.45 88.20 9.43
3674 9.3480 78.01 86.83 9.22
3675 9.3500 101.04 85.62 10.51
3676 9.3520 85.39 84.56 9.66
3677 9.3540 74.40 83.60 9.01
3678 9.3560 77.00 82.75 9.16
3679 9.3580 94.77 81.99 10.19
3680 9.3600 72.18 81.30 8.89
3681 9.3620 71.96 80.68 8.87
3682 9.3640 70.79 80.11 8.79
3683 9.3660 89.07 79.59 9.87
3684 9.3680 83.39 79.12 9.54
3685 9.3700 73.43 78.68 8.96
3686 9.3720 64.80 78.29 8.41
3687 9.3740 73.43 77.92 8.97
3688 9.3760 69.65 77.58 8.71
3689 9.3780 62.99 77.26 8.30
3690 9.3800 81.39 76.97 9.44
3691 9.3820 63.62 76.69 8.30
3692 9.3840 81.64 76.44 9.44
3693 9.3860 78.14 76.20 9.25
3694 9.3880 81.13 75.98 9.43
3695 9.3900 92.95 75.77 10.10
3696 9.3920 83.83 75.57 9.58
3697 9.3940 82.44 75.39 9.49
3698 9.3960 67.60 75.22 8.60
3699 9.3980 67.62 74.30 8.60
3700 9.4000 80.66 74.17 9.38
3701 9.4020 70.75 74.04 8.81
3702 9.4040 73.34 73.92 8.96
3703 9.4060 77.13 73.81 9.18
3704 9.4080 79.04 73.70 9.29
3705 9.4100 65.48 73.60 8.46
3706 9.4120 78.07 73.50 9.24
3707 9.4140 75.68 73.41 9.10
3708 9.4160 71.24 73.32 8.81
3709 9.4180 85.03 73.24 9.64
3710 9.4200 80.83 73.16 9.41
3711 9.4220 65.78 73.08 8.47
3712 9.4240 81.08 73.01 9.42
3713 9.4260 79.66 72.94 9.32
3714 9.4280 68.20 72.87 8.64
3715 9.4300 65.07 72.80 8.45
3716 9.4320 70.04 72.74 8.75
3717 9.4340 78.16 72.68 9.25
3718 9.4360 81.60 72.63 9.45
3719 9.4380 82.37 72.57 9.51
3720 9.4400 74.07 72.52 9.02
3721 9.4420 62.03 71.06 8.24
3722 9.4440 59.81 71.05 8.08
3723 9.4460 68.64 71.04 8.66
3724 9.4480 78.49 71.03 9.27
3725 9.4500 80.70 71.02 9.40
3726 9.4520 70.15 71.01 8.76
3727 9.4540 78.25 71.00 9.26
3728 9.4560 64.60 70.99 8.40
3729 9.4580 70.67 70.98 8.78
3730 9.4600 60.95 70.97 8.16
3731 9.4620 80.52 70.96 9.39
3732 9.4640 73.39 70.95 8.98
3733 9.4660 73.29 70.94 8.96
3734 9.4680 70.74 70.94 8.77
3735 9.4700 53.18 70.93 7.57
3736 9.4720 71.33 70.92 8.81
3737 9.4740 87.18 70.91 9.78
3738 9.4760 72.19 70.90 8.90
3739 9.4780 67.01 70.89 8.55
3740 9.4800 86.54 70.88 9.73
3741 9.4820 72.47 70.87 8.89
3742 9.4840 69.68 70.86 8.73
3743 9.4860 83.92 70.85 9.58
3744 9.4880 79.39 70.85 9.33
3745 9.4900 79.66 70.84 9.34
3746 9.4920 70.76 70.83 8.79
3747 9.4940 89.18 70.82 9.88
3748 9.4960 89.67 70.81 9.88
3749 9.4980 64.20 70.80 8.39
3750 9.5000 74.95 70.79 9.05
3751 9.5020 80.24 70.78 9.36
3752 9.5040 79.76 70.78 9.35
3753 9.5060 72.50 70.84 8.90
3754 9.5080 73.65 70.83 8.98
3755 9.5100 71.12 70.83 8.81
3756 9.5120 61.27 70.82 8.19
3757 9.5140 67.86 70.82 8.62
3758 9.5160 72.45 70.81 8.89
3759 9.5180 75.79 70.80 9.10
3760 9.5200 63.82 70.80 8.34
3761 9.5220 87.55 70.79 9.80
3762 9.5240 79.76 70.79 9.35
3763 9.5260 84.06 70.78 9.59
3764 9.5280 69.87 70.78 8.74
3765 9.5300 68.62 70.78 8.66
3766 9.5320 80.62 70.77 9.41
3767 9.5340 75.71 70.77 9.10
3768 9.5360 69.17 70.77 8.68
3769 9.5380 62.59 70.76 8.28
3770 9.5400 66.43 70.76 8.51
3771 9.5420 83.97 70.76 9.58
3772 9.5440 76.27 70.75 9.14
3773 9.5460 87.36 70.75 9.78
3774 9.5480 76.55 70.75 9.16
3775 9.5500 83.15 70.75 9.55
3776 9.5520 69.92 70.75 8.74
3777 9.5540 74.68 70.75 9.03
3778 9.5560 84.22 70.75 9.59
3779 9.5580 70.09 70.80 8.76
3780 9.5600 87.29 70.81 9.77
3781 9.5620 74.26 70.81 8.99
3782 9.5640 86.64 70.81 9.74
3783 9.5660 91.28 70.82 10.00
3784 9.5680 83.98 70.83 9.59
3785 9.5700 74.83 70.84 9.06
3786 9.5720 69.59 70.84 8.73
3787 9.5740 74.06 70.85 9.01
3788 9.5760 70.03 70.87 8.75
3789 9.5780 69.52 70.88 8.73
3790 9.5800 91.57 70.90 10.02
3791 9.5820 76.49 70.91 9.14
3792 9.5840 64.90 70.93 8.43
3793 9.5860 70.63 70.96 8.79
3794 9.5880 67.21 70.98 8.57
3795 9.5900 70.41 71.01 8.78
3796 9.5920 79.38 71.05 9.32
3797 9.5940 86.39 71.08 9.71
3798 9.5960 72.01 71.13 8.85
3799 9.5980 85.24 71.18 9.64
3800 9.6000 86.38 71.23 9.73
3801 9.6020 76.89 71.30 9.16
3802 9.6040 78.85 71.38 9.28
3803 9.6060 82.55 71.47 9.49
3804 9.6080 89.33 71.57 9.88
3805 9.6100 97.28 71.70 10.31
3806 9.6120 115.12 71.84 11.22
3807 9.6140 114.31 72.02 11.16
3808 9.6160 115.29 72.24 11.23
3809 9.6180 126.39 72.51 11.76
3810 9.6200 98.20 72.85 10.32
3811 9.6220 91.23 73.28 10.00
3812 9.6240 72.57 73.84 8.91
3813 9.6260 76.94 74.58 9.19
3814 9.6280 84.02 75.60 9.59
3815 9.6300 89.07 77.05 9.86
3816 9.6320 75.23 79.20 9.03
3817 9.6340 103.95 82.55 10.67
3818 9.6360 92.26 88.16 10.03
3819 9.6380 120.89 98.34 11.51
3820 9.6400 146.17 118.04 12.64
3821 9.6420 192.95 153.66 14.51
3822 9.6440 232.59 184.88 15.96
3823 9.6460 183.79 160.43 14.17
3824 9.6480 133.90 122.61 12.11
3825 9.6500 113.07 100.78 11.13
3826 9.6520 86.66 89.54 9.74
3827 9.6540 82.34 83.46 9.49
3828 9.6560 91.86 79.89 10.02
3829 9.6580 78.03 77.65 9.23
3830 9.6600 91.84 76.18 10.01
3831 9.6620 73.29 75.18 8.96
3832 9.6640 83.43 74.49 9.56
3833 9.6660 77.06 74.01 9.19
3834 9.6680 72.20 73.68 8.89
3835 9.6700 75.93 73.48 9.11
3836 9.6720 74.45 73.39 9.03
3837 9.6740 71.62 73.39 8.85
3838 9.6760 68.25 73.49 8.62
3839 9.6780 67.61 73.72 8.61
3840 9.6800 79.98 74.09 9.36
3841 9.6820 95.58 74.66 10.24
3842 9.6840 84.57 75.52 9.62
3843 9.6860 86.77 76.85 9.74
3844 9.6880 87.45 78.95 9.78
3845 9.6900 94.42 82.47 10.17
3846 9.6920 85.74 88.79 9.68
3847 9.6940 85.81 100.96 9.70
3848 9.6960 88.85 123.82 9.87
3849 9.6980 99.82 150.82 10.45
3850 9.7000 117.70 142.70 11.34
3851 9.7020 134.71 113.96 12.14
3852 9.7040 115.08 95.37 11.22
3853 9.7060 107.66 85.75 10.85
3854 9.7080 112.82 80.59 11.12
3855 9.7100 74.56 77.60 9.02
3856 9.7120 73.51 75.73 8.97
3857 9.7140 74.59 74.49 9.04
3858 9.7160 73.49 73.62 8.98
3859 9.7180 65.45 73.00 8.46
3860 9.7200 66.23 72.53 8.51
3861 9.7220 65.91 72.17 8.48
3862 9.7240 66.75 71.88 8.56
3863 9.7260 70.26 71.66 8.76
3864 9.7280 78.19 71.47 9.24
3865 9.7300 91.32 71.32 10.00
3866 9.7320 72.59 71.19 8.91
3867 9.7340 70.80 71.08 8.80
3868 9.7360 79.88 70.99 9.36
3869 9.7380 64.10 70.91 8.37
3870 9.7400 59.35 70.84 8.06
3871 9.7420 53.07 70.78 7.63
3872 9.7440 63.37 70.72 8.30
3873 9.7460 70.05 70.67 8.74
3874 9.7480 73.11 70.63 8.95
3875 9.7500 78.08 70.59 9.25
3876 9.7520 75.45 70.56 9.08
3877 9.7540 72.36 70.52 8.90
3878 9.7560 68.97 70.49 8.67
3879 9.7580 56.19 70.47 7.84
3880 9.7600 74.23 70.44 9.02
3881 9.7620 57.98 70.42 7.95
3882 9.7640 68.32 70.40 8.65
3883 9.7660 73.92 70.38 8.99
3884 9.7680 71.57 70.36 8.86
3885 9.7700 72.83 70.34 8.94
3886 9.7720 64.75 70.33 8.42
3887 9.7740 62.67 70.31 8.28
3888 9.7760 64.03 70.30 8.36
3889 9.7780 77.00 70.29 9.18
3890 9.7800 76.83 70.27 9.15
3891 9.7820 68.95 70.26 8.69
3892 9.7840 74.12 70.25 9.02
3893 9.7860 71.17 70.17 8.82
3894 9.7880 90.89 70.16 9.97
3895 9.7900 68.68 70.16 8.59
3896 9.7920 70.16 70.15 8.72
3897 9.7940 78.42 70.14 9.26
3898 9.7960 78.04 70.14 9.24
3899 9.7980 73.00 70.13 8.95
3900 9.8000 53.58 70.12 7.65
3901 9.8020 60.58 70.12 8.14
3902 9.8040 75.39 70.11 9.09
3903 9.8060 68.62 70.11 8.67
3904 9.8080 57.60 70.10 7.93
3905 9.8100 67.81 70.10 8.60
3906 9.8120 78.45 70.09 9.26
3907 9.8140 71.34 70.09 8.83
3908 9.8160 73.56 70.09 8.98
3909 9.8180 65.55 70.08 8.47
3910 9.8200 53.34 70.08 7.65
3911 9.8220 63.53 70.07 8.32
3912 9.8240 69.71 70.07 8.73
3913 9.8260 73.78 70.07 8.98
3914 9.8280 70.46 70.06 8.79
3915 9.8300 61.77 70.06 8.22
3916 9.8320 78.16 70.06 9.24
3917 9.8340 68.33 70.05 8.63
3918 9.8360 65.49 70.05 8.46
3919 9.8380 57.72 70.05 7.95
3920 9.8400 77.29 70.00 9.20
3921 9.8420 73.26 69.99 8.95
3922 9.8440 65.27 69.99 8.44
3923 9.8460 52.74 69.99 7.57
3924 9.8480 73.17 69.99 8.94
3925 9.8500 64.62 69.99 8.42
3926 9.8520 69.54 69.99 8.72
3927 9.8540 84.67 69.99 9.64
3928 9.8560 62.40 69.99 8.27
3929 9.8580 67.84 69.99 8.61
3930 9.8600 68.80 69.99 8.66
3931 9.8620 80.86 69.99 9.41
3932 9.8640 70.75 69.98 8.80
3933 9.8660 77.98 69.98 9.26
3934 9.8680 64.25 69.98 8.39
3935 9.8700 55.77 69.98 7.82
3936 9.8720 74.75 69.98 9.05
3937 9.8740 58.35 69.98 7.99
3938 9.8760 62.62 69.98 8.27
3939 9.8780 59.94 69.98 8.09
3940 9.8800 68.49 69.98 8.66
3941 9.8820 64.45 69.98 8.40
3942 9.8840 65.65 69.98 8.48
3943 9.8860 60.30 69.98 8.11
3944 9.8880 65.19 69.98 8.44
3945 9.8900 75.03 69.98 9.07
3946 9.8920 57.57 69.98 7.92
3947 9.8940 66.78 69.98 8.52
3948 9.8960 65.91 69.98 8.42
3949 9.8980 57.09 69.98 7.90
3950 9.9000 51.83 69.98 7.51
3951 9.9020 60.53 69.98 8.14
3952 9.9040 63.43 69.98 8.33
3953 9.9060 73.39 69.98 8.96
3954 9.9080 68.17 69.98 8.64
3955 9.9100 69.01 69.98 8.69
3956 9.9120 66.93 69.98 8.55
3957 9.9140 62.19 69.98 8.25
3958 9.9160 76.45 69.98 9.16
3959 9.9180 64.45 69.98 8.40
3960 9.9200 76.74 69.98 9.17
3961 9.9220 70.30 69.98 8.77
3962 9.9240 71.73 69.98 8.87
3963 9.9260 84.04 69.98 9.59
3964 9.9280 81.67 69.98 9.45
3965 9.9300 79.23 69.98 9.32
3966 9.9320 67.16 69.98 8.58
3967 9.9340 59.11 69.98 8.03
3968 9.9360 65.13 69.98 8.46
3969 9.9380 66.66 69.98 8.55
3970 9.9400 67.47 69.99 8.60
3971 9.9420 65.36 69.99 8.47
3972 9.9440 73.33 69.99 8.97
3973 9.9460 72.77 69.99 8.92
3974 9.9480 62.53 69.99 8.26
3975 9.9500 57.37 69.99 7.92
3976 9.9520 71.88 69.99 8.87
3977 9.9540 71.29 69.99 8.85
3978 9.9560 60.90 69.99 8.17
3979 9.9580 54.38 69.99 7.72
3980 9.9600 67.49 69.99 8.60
3981 9.9620 61.92 69.99 8.25
3982 9.9640 77.45 70.00 9.21
3983 9.9660 88.21 70.00 9.83
3984 9.9680 56.88 70.00 7.89
3985 9.9700 57.44 70.00 7.92
3986 9.9720 76.50 70.00 9.15
3987 9.9740 75.33 70.00 9.08
3988 9.9760 59.67 70.00 8.08
3989 9.9780 60.07 70.00 8.11
3990 9.9800 57.22 70.01 7.90
3991 9.9820 52.75 70.01 7.56
3992 9.9840 48.93 70.01 7.32
3993 9.9860 64.09 70.01 8.39
3994 9.9880 49.82 70.01 7.38
3995 9.9900 70.04 70.01 8.76
3996 9.9920 63.46 70.01 8.33
3997 9.9940 57.31 70.02 7.92
3998 9.9960 57.03 70.02 7.89
3999 9.9980 53.70 70.02 10.92
4000 10.0000 66.39 70.02 8.16
4001 10.0020 60.56 70.02 7.73
4002 10.0040 72.38 70.02 8.55
4003 10.0060 74.54 70.03 8.58
4004 10.0080 55.62 70.03 7.35
4005 10.0100 63.72 70.03 7.84
4006 10.0120 66.52 70.03 8.12
4007 10.0140 79.32 70.03 8.95
4008 10.0160 83.30 70.03 9.20
4009 10.0180 66.02 70.04 8.11
4010 10.0200 60.37 70.04 7.79
4011 10.0220 59.40 70.04 7.70
4012 10.0240 66.23 70.04 8.09
4013 10.0260 73.99 70.04 8.68
4014 10.0280 59.26 70.05 7.71
4015 10.0300 55.69 70.05 7.39
4016 10.0320 68.70 70.05 8.28
4017 10.0340 61.66 70.05 7.84
4018 10.0360 71.91 70.06 8.46
4019 10.0380 81.89 70.06 9.08
4020 10.0400 62.86 70.06 7.90
4021 10.0420 65.49 70.06 8.08
4022 10.0440 65.80 70.06 8.07
4023 10.0460 73.54 70.07 8.53
4024 10.0480 67.84 70.07 8.17
4025 10.0500 52.19 70.07 7.12
4026 10.0520 75.73 70.07 8.66
4027 10.0540 77.06 70.08 8.75
4028 10.0560 81.40 70.08 9.04
4029 10.0580 69.75 70.08 8.30
4030 10.0600 72.87 70.08 8.45
4031 10.0620 80.89 70.09 8.90
4032 10.0640 94.93 70.09 9.67
4033 10.0660 118.15 70.09 10.93
4034 10.0680 81.33 70.10 9.00
4035 10.0700 98.64 70.10 10.02
4036 10.0720 83.63 70.10 9.18
4037 10.0740 80.13 70.10 9.00
4038 10.0760 84.19 70.11 9.18
4039 10.0780 71.13 70.11 8.46
4040 10.0800 82.17 70.11 9.09
4041 10.0820 77.28 70.11 8.70
4042 10.0840 56.88 70.12 7.43
4043 10.0860 63.10 70.12 7.93
4044 10.0880 50.24 70.12 6.98
4045 10.0900 75.38 70.13 8.68
4046 10.0920 70.83 70.13 8.41
4047 10.0940 68.39 70.13 8.23
4048 10.0960 67.81 70.14 8.19
4049 10.0980 70.46 70.14 8.36
4050 10.1000 71.68 70.14 8.41
4051 10.1020 67.73 70.15 8.22
4052 10.1040 64.58 70.15 8.07
4053 10.1060 68.31 70.15 8.24
4054 10.1080 64.07 70.15 7.96
4055 10.1100 71.15 70.16 8.47
4056 10.1120 65.09 70.16 8.02
4057 10.1140 71.85 70.16 8.45
4058 10.1160 75.57 70.17 8.71
4059 10.1180 66.22 70.17 8.13
4060 10.1200 63.49 70.17 8.01
4061 10.1220 72.51 70.18 8.53
4062 10.1240 71.16 70.18 8.40
4063 10.1260 81.70 70.19 9.02
4064 10.1280 65.61 70.19 8.02
4065 10.1300 75.32 70.19 8.75
4066 10.1320 69.70 70.20 8.35
4067 10.1340 57.14 70.20 7.47
4068 10.1360 84.36 70.20 9.22
4069 10.1380 70.38 70.21 8.32
4070 10.1400 51.25 70.21 7.13
4071 10.1420 59.92 70.21 7.71
4072 10.1440 62.78 70.22 7.85
4073 10.1460 73.47 70.22 8.54
4074 10.1480 74.04 70.23 8.56
4075 10.1500 88.58 70.23 9.48
4076 10.1520 62.05 70.23 7.78
4077 10.1540 69.06 70.24 8.24
4078 10.1560 80.38 70.24 9.01
4079 10.1580 73.37 70.24 8.55
4080 10.1600 69.27 70.25 8.28
4081 10.1620 64.11 70.25 7.95
4082 10.1640 76.51 70.26 8.74
4083 10.1660 60.15 70.26 7.68
4084 10.1680 63.90 70.26 8.02
4085 10.1700 67.06 70.27 8.19
4086 10.1720 62.76 70.27 7.85
4087 10.1740 65.59 70.28 8.02
4088 10.1760 74.08 70.28 8.54
4089 10.1780 95.60 70.29 9.84
4090 10.1800 74.57 70.29 8.55
4091 10.1820 61.92 70.29 7.90
4092 10.1840 60.22 70.30 7.74
4093 10.1860 66.67 70.30 8.12
4094 10.1880 70.45 70.31 8.35
4095 10.1900 65.14 70.31 8.02
4096 10.1920 68.02 70.31 8.20
4097 10.1940 72.28 70.32 8.47
4098 10.1960 70.96 70.32 8.41
4099 10.1980 64.67 70.33 8.01
4100 10.2000 71.65 70.33 8.47
4101 10.2020 66.79 70.34 8.20
4102 10.2040 59.70 70.34 7.74
4103 10.2060 64.18 70.35 7.99
4104 10.2080 64.95 70.35 8.00
4105 10.2100 73.94 70.35 8.57
4106 10.2120 60.63 70.36 7.73
4107 10.2140 74.64 70.36 8.69
4108 10.2160 80.50 70.37 9.00
4109 10.2180 72.48 70.37 8.43
4110 10.2200 69.95 70.38 8.37
4111 10.2220 72.05 70.38 8.52
4112 10.2240 61.06 70.39 7.76
4113 10.2260 73.17 70.39 8.51
4114 10.2280 62.17 70.40 7.82
4115 10.2300 74.51 70.40 8.59
4116 10.2320 75.55 70.41 8.70
4117 10.2340 55.48 70.41 7.34
4118 10.2360 73.62 70.42 8.54
4119 10.2380 77.79 70.42 8.82
4120 10.2400 69.92 70.43 8.26
4121 10.2420 69.60 70.43 8.29
4122 10.2440 71.83 70.43 8.44
4123 10.2460 78.66 70.44 8.85
4124 10.2480 70.69 70.44 8.36
4125 10.2500 73.92 70.45 8.56
4126 10.2520 64.61 70.45 7.95
4127 10.2540 70.21 70.46 8.43
4128 10.2560 71.74 70.47 8.46
4129 10.2580 72.54 70.48 8.45
4130 10.2600 63.08 70.49 7.90
4131 10.2620 66.61 70.49 8.16
4132 10.2640 74.65 70.50 8.69
4133 10.2660 76.01 70.50 8.77
4134 10.2680 64.89 70.51 7.97
4135 10.2700 71.60 70.51 8.42
4136 10.2720 70.47 70.52 8.40
4137 10.2740 80.23 70.52 9.00
4138 10.2760 70.65 70.53 8.32
4139 10.2780 75.28 70.54 8.68
4140 10.2800 66.13 70.54 8.12
4141 10.2820 63.95 70.55 7.95
4142 10.2840 66.07 70.55 8.13
4143 10.2860 66.68 70.56 8.09
4144 10.2880 81.78 70.56 9.03
4145 10.2900 52.14 70.57 7.14
4146 10.2920 73.43 70.58 8.60
4147 10.2940 75.50 70.58 8.67
4148 10.2960 69.18 70.59 8.25
4149 10.2980 57.80 70.59 7.64
4150 10.3000 57.70 70.60 7.52
4151 10.3020 61.18 70.61 7.68
4152 10.3040 71.35 70.61 8.51
4153 10.3060 60.46 70.62 7.73
4154 10.3080 65.54 70.63 8.00
4155 10.3100 68.04 70.63 8.14
4156 10.3120 64.05 70.64 7.95
4157 10.3140 65.43 70.65 8.02
4158 10.3160 76.07 70.65 8.72
4159 10.3180 58.78 70.66 7.64
4160 10.3200 66.66 70.67 8.13
4161 10.3220 63.56 70.67 7.94
4162 10.3240 75.69 70.68 8.73
4163 10.3260 63.83 70.69 7.93
4164 10.3280 62.69 70.69 7.95
4165 10.3300 65.62 70.70 8.09
4166 10.3320 62.15 70.71 7.83
4167 10.3340 77.48 70.72 8.85
4168 10.3360 67.53 70.73 8.28
4169 10.3380 80.32 70.74 9.04
4170 10.3400 75.98 70.74 8.75
4171 10.3420 60.87 70.75 7.80
4172 10.3440 63.24 70.76 7.95
4173 10.3460 77.21 70.77 8.76
4174 10.3480 60.72 70.78 7.70
4175 10.3500 64.54 70.79 8.03
4176 10.3520 60.87 70.80 7.80
4177 10.3540 61.68 70.81 7.82
4178 10.3560 69.11 70.83 8.30
4179 10.3580 70.63 70.84 8.43
4180 10.3600 64.23 70.85 7.94
4181 10.3620 60.13 70.87 7.65
4182 10.3640 60.71 70.89 7.74
4183 10.3660 65.41 70.90 8.04
4184 10.3680 72.50 70.92 8.48
4185 10.3700 77.38 70.95 8.80
4186 10.3720 77.56 70.97 8.85
4187 10.3740 74.90 71.00 8.61
4188 10.3760 74.98 71.03 8.61
4189 10.3780 79.55 71.07 8.92
4190 10.3800 64.44 71.12 7.94
4191 10.3820 65.31 71.17 8.05
4192 10.3840 66.29 71.24 8.10
4193 10.3860 48.55 71.32 6.80
4194 10.3880 74.16 71.43 8.60
4195 10.3900 74.05 71.58 8.60
4196 10.3920 75.03 71.78 8.56
4197 10.3940 76.69 72.06 8.70
4198 10.3960 69.53 72.48 8.25
4199 10.3980 77.44 73.17 8.81
4200 10.4000 67.27 74.36 8.15
4201 10.4020 73.90 76.58 8.55
4202 10.4040 77.73 80.60 8.75
4203 10.4060 87.07 86.02 9.26
4204 10.4080 88.00 87.08 9.38
4205 10.4100 66.74 82.05 8.12
4206 10.4120 80.65 77.49 8.97
4207 10.4140 72.41 74.87 8.51
4208 10.4160 70.19 73.48 8.34
4209 10.4180 75.56 72.70 8.64
4210 10.4200 77.88 72.24 8.72
4211 10.4220 73.71 71.94 8.50
4212 10.4240 72.27 71.73 8.48
4213 10.4260 63.56 71.59 7.94
4214 10.4280 70.46 71.48 8.35
4215 10.4300 84.74 71.40 9.22
4216 10.4320 74.36 71.34 8.56
4217 10.4340 71.83 71.30 8.43
4218 10.4360 70.87 71.26 8.39
4219 10.4380 72.05 71.24 8.43
4220 10.4400 76.20 71.21 8.69
4221 10.4420 61.53 71.20 7.74
4222 10.4440 72.54 71.18 8.41
4223 10.4460 85.06 71.17 9.17
4224 10.4480 67.66 71.17 8.20
4225 10.4500 67.39 71.16 8.13
4226 10.4520 79.91 71.16 8.87
4227 10.4540 86.85 71.15 9.29
4228 10.4560 82.21 71.15 8.98
4229 10.4580 95.64 71.15 9.83
4230 10.4600 105.58 71.15 10.30
4231 10.4620 83.39 71.15 9.03
4232 10.4640 78.08 71.15 8.83
4233 10.4660 73.91 71.15 8.56
4234 10.4680 81.41 71.16 9.03
4235 10.4700 87.31 71.16 9.26
4236 10.4720 78.91 71.16 8.79
4237 10.4740 77.77 71.17 8.81
4238 10.4760 75.75 71.17 8.73
4239 10.4780 66.10 71.17 8.06
4240 10.4800 83.18 71.18 9.10
4241 10.4820 77.86 71.18 8.76
4242 10.4840 68.61 71.19 8.26
4243 10.4860 71.56 71.19 8.50
4244 10.4880 63.90 71.20 8.01
4245 10.4900 59.04 71.20 7.62
4246 10.4920 71.39 71.21 8.43
4247 10.4940 79.42 71.21 8.89
4248 10.4960 67.63 71.22 8.14
4249 10.4980 66.37 71.22 8.02
4250 10.5000 70.73 71.23 8.40
4251 10.5020 67.40 71.24 8.19
4252 10.5040 68.16 71.24 8.21
4253 10.5060 77.56 71.25 8.83
4254 10.5080 67.22 71.25 8.21
4255 10.5100 49.88 71.26 7.00
4256 10.5120 65.87 71.27 8.10
4257 10.5140 61.66 71.27 7.77
4258 10.5160 68.16 71.28 8.22
4259 10.5180 73.29 71.28 8.54
4260 10.5200 76.40 71.29 8.67
4261 10.5220 77.65 71.30 8.72
4262 10.5240 66.90 71.30 8.19
4263 10.5260 69.83 71.31 8.31
4264 10.5280 80.73 71.32 8.94
4265 10.5300 70.42 71.32 8.30
4266 10.5320 59.10 71.33 7.60
4267 10.5340 70.50 71.34 8.32
4268 10.5360 69.76 71.34 8.31
4269 10.5380 54.13 71.35 7.30
4270 10.5400 73.98 71.35 8.66
4271 10.5420 76.42 71.36 8.86
4272 10.5440 74.52 71.37 8.69
4273 10.5460 62.18 71.37 7.79
4274 10.5480 60.04 71.38 7.66
4275 10.5500 67.89 71.39 8.16
4276 10.5520 73.20 71.39 8.51
4277 10.5540 73.96 71.40 8.55
4278 10.5560 74.80 72.80 8.70
4279 10.5580 62.35 72.84 7.91
4280 10.5600 70.81 72.88 8.45
4281 10.5620 77.75 72.92 8.86
4282 10.5640 72.49 72.97 8.48
4283 10.5660 81.65 73.02 9.04
4284 10.5680 74.51 73.07 8.60
4285 10.5700 69.57 73.12 8.31
4286 10.5720 66.43 73.18 8.11
4287 10.5740 71.99 73.23 8.42
4288 10.5760 56.09 73.29 7.44
4289 10.5780 63.80 73.35 7.92
4290 10.5800 75.39 73.42 8.64
4291 10.5820 70.78 73.48 8.24
4292 10.5840 78.42 73.55 8.74
4293 10.5860 86.90 73.62 9.34
4294 10.5880 82.64 73.70 9.06
4295 10.5900 82.07 73.78 9.01
4296 10.5920 75.44 73.86 8.65
4297 10.5940 50.38 73.95 7.03
4298 10.5960 76.72 74.04 8.77
4299 10.5980 63.20 74.13 7.82
4300 10.6000 69.71 74.23 8.33
4301 10.6020 74.44 74.33 8.58
4302 10.6040 67.05 74.97 8.10
4303 10.6060 65.21 75.10 8.02
4304 10.6080 73.62 75.23 8.53
4305 10.6100 59.93 75.38 7.66
4306 10.6120 72.57 75.53 8.42
4307 10.6140 75.73 75.68 8.57
4308 10.6160 81.80 75.85 9.02
4309 10.6180 70.06 76.03 8.36
4310 10.6200 70.18 76.22 8.39
4311 10.6220 79.86 76.42 8.91
4312 10.6240 79.51 76.63 8.93
4313 10.6260 73.70 76.85 8.57
4314 10.6280 72.16 77.10 8.40
4315 10.6300 67.88 77.35 8.13
4316 10.6320 87.38 77.63 9.28
4317 10.6340 88.07 77.92 9.38
4318 10.6360 75.25 78.24 8.56
4319 10.6380 81.58 78.58 9.00
4320 10.6400 83.68 78.95 9.05
4321 10.6420 93.81 79.34 9.62
4322 10.6440 70.37 79.77 8.37
4323 10.6460 75.85 80.24 8.67
4324 10.6480 81.07 80.74 8.96
4325 10.6500 73.65 81.30 8.48
4326 10.6520 83.28 81.90 9.10
4327 10.6540 79.39 82.57 8.90
4328 10.6560 85.60 83.30 9.18
4329 10.6580 66.19 84.11 7.95
4330 10.6600 85.14 85.01 9.20
4331 10.6620 95.35 86.01 9.77
4332 10.6640 87.11 87.13 9.22
4333 10.6660 99.55 88.38 9.96
4334 10.6680 82.36 89.80 9.10
4335 10.6700 88.12 91.42 9.27
4336 10.6720 106.36 93.26 10.17
4337 10.6740 107.84 95.37 10.20
4338 10.6760 129.52 97.83 11.27
4339 10.6780 108.78 100.69 10.36
4340 10.6800 122.06 104.06 11.01
4341 10.6820 125.15 108.06 11.06
4342 10.6840 106.26 112.88 10.15
4343 10.6860 130.86 118.73 11.35
4344 10.6880 147.60 125.96 12.14
4345 10.6900 154.31 135.01 12.36
4346 10.6920 171.70 146.57 13.12
4347 10.6940 190.93 161.62 13.75
4348 10.6960 221.18 181.76 14.74
4349 10.6980 233.14 209.48 15.18
4350 10.7000 274.93 249.05 16.57
4351 10.7020 300.39 308.39 17.18
4352 10.7040 418.95 403.56 20.30
4353 10.7060 505.74 569.22 22.12
4354 10.7080 776.93 873.86 27.37
4355 10.7100 1327.82 1418.25 35.77
4356 10.7120 2284.52 2174.60 47.32
4357 10.7140 3096.66 2447.85 55.67
4358 10.7160 2249.82 1813.46 47.37
4359 10.7180 1177.59 1126.75 34.25
4360 10.7200 644.78 709.25 25.36
4361 10.7220 435.03 482.61 20.88
4362 10.7240 334.32 357.62 18.25
4363 10.7260 264.98 283.49 16.26
4364 10.7280 228.00 236.23 15.10
4365 10.7300 201.88 204.54 14.12
4366 10.7320 182.04 182.62 13.48
4367 10.7340 185.58 167.29 13.59
4368 10.7360 169.15 156.63 12.93
4369 10.7380 182.30 149.53 13.43
4370 10.7400 180.05 145.37 13.35
4371 10.7420 166.82 143.90 12.85
4372 10.7440 199.78 145.20 14.07
4373 10.7460 191.22 149.73 13.73
4374 10.7480 209.09 158.50 14.35
4375 10.7500 217.30 173.48 14.48
4376 10.7520 271.70 198.69 16.14
4377 10.7540 369.73 242.71 18.83
4378 10.7560 499.38 323.84 21.57
4379 10.7580 759.08 475.03 26.77
4380 10.7600 873.15 728.09 28.93
4381 10.7620 921.47 983.30 30.46
4382 10.7640 769.43 911.88 28.42
4383 10.7660 539.11 623.84 23.76
4384 10.7680 338.26 404.92 18.67
4385 10.7700 218.25 280.52 14.93
4386 10.7720 168.41 212.68 13.02
4387 10.7740 118.55 173.79 10.86
4388 10.7760 114.92 149.57 10.70
4389 10.7780 136.68 133.36 11.71
4390 10.7800 89.21 121.96 9.43
4391 10.7820 99.74 113.63 10.01
4392 10.7840 92.98 107.35 9.60
4393 10.7860 105.45 102.49 10.28
4394 10.7880 94.03 98.64 9.65
4395 10.7900 86.76 95.54 9.15
4396 10.7920 99.44 93.00 9.93
4397 10.7940 96.66 90.89 9.78
4398 10.7960 88.19 89.12 9.37
4399 10.7980 83.95 87.61 9.14
4400 10.8000 101.82 86.31 10.08
4401 10.8020 74.29 85.19 8.55
4402 10.8040 79.42 84.21 8.96
4403 10.8060 72.52 83.35 8.49
4404 10.8080 84.42 82.59 9.27
4405 10.8100 77.02 81.91 8.81
4406 10.8120 75.93 81.30 8.73
4407 10.8140 73.00 80.76 8.52
4408 10.8160 83.98 80.27 9.14
4409 10.8180 86.08 79.82 9.22
4410 10.8200 64.65 79.42 7.91
4411 10.8220 76.22 79.05 8.63
4412 10.8240 75.81 78.71 8.72
4413 10.8260 66.83 78.40 8.08
4414 10.8280 76.69 78.12 8.73
4415 10.8300 83.80 77.85 9.11
4416 10.8320 75.99 77.61 8.66
4417 10.8340 82.86 77.39 9.05
4418 10.8360 72.26 77.18 8.40
4419 10.8380 83.73 76.98 9.08
4420 10.8400 70.58 76.80 8.36
4421 10.8420 78.34 76.63 8.86
4422 10.8440 101.69 76.47 10.16
4423 10.8460 88.25 76.32 9.37
4424 10.8480 78.36 76.18 8.82
4425 10.8500 85.85 76.05 9.32
4426 10.8520 70.94 75.93 8.39
4427 10.8540 64.14 75.82 8.05
4428 10.8560 68.21 75.71 8.28
4429 10.8580 88.17 75.60 9.38
4430 10.8600 80.57 75.51 8.93
4431 10.8620 82.51 75.42 9.07
4432 10.8640 70.91 75.33 8.39
4433 10.8660 73.00 75.25 8.47
4434 10.8680 89.89 75.17 9.46
4435 10.8700 79.21 75.10 8.84
4436 10.8720 68.34 73.65 8.13
4437 10.8740 69.29 73.62 8.30
4438 10.8760 71.58 73.59 8.43
4439 10.8780 71.42 73.56 8.44
4440 10.8800 74.94 73.54 8.68
4441 10.8820 75.09 73.51 8.63
4442 10.8840 78.38 73.49 8.84
4443 10.8860 87.21 73.46 9.34
4444 10.8880 65.59 73.44 7.97
4445 10.8900 60.84 73.42 7.70
4446 10.8920 75.27 73.41 8.62
4447 10.8940 71.15 73.39 8.40
4448 10.8960 82.93 73.37 9.11
4449 10.8980 67.10 73.36 8.06
4450 10.9000 62.80 73.35 7.79
4451 10.9020 64.82 73.33 8.09
4452 10.9040 56.72 73.32 7.48
4453 10.9060 66.88 73.31 8.11
4454 10.9080 77.84 73.30 8.80
4455 10.9100 84.57 73.29 9.22
4456 10.9120 71.04 73.28 8.39
4457 10.9140 77.00 73.27 8.74
4458 10.9160 65.97 73.26 8.07
4459 10.9180 72.74 73.25 8.50
4460 10.9200 78.75 73.25 8.84
4461 10.9220 78.79 72.72 8.83
4462 10.9240 74.83 72.72 8.59
4463 10.9260 68.61 72.73 8.25
4464 10.9280 79.44 72.74 8.93
4465 10.9300 74.36 72.74 8.58
4466 10.9320 65.01 72.88 8.12
4467 10.9340 87.92 72.89 9.46
4468 10.9360 79.22 72.90 8.85
4469 10.9380 71.77 72.91 8.39
4470 10.9400 74.54 72.92 8.57
4471 10.9420 85.53 72.93 9.20
4472 10.9440 88.79 72.94 9.41
4473 10.9460 63.33 72.95 7.88
4474 10.9480 79.41 72.96 8.85
4475 10.9500 74.10 72.97 8.47
4476 10.9520 81.73 72.98 8.86
4477 10.9540 79.26 73.00 8.88
4478 10.9560 73.44 73.01 8.46
4479 10.9580 85.19 73.02 9.15
4480 10.9600 63.24 73.03 7.77
4481 10.9620 90.07 73.04 9.44
4482 10.9640 68.92 73.06 8.31
4483 10.9660 79.80 73.07 8.88
4484 10.9680 76.60 73.08 8.65
4485 10.9700 74.20 73.10 8.63
4486 10.9720 65.32 73.11 8.03
4487 10.9740 71.24 73.12 8.46
4488 10.9760 69.58 73.14 8.31
4489 10.9780 73.90 73.15 8.61
4490 10.9800 88.80 73.17 9.40
4491 10.9820 70.11 73.18 8.29
4492 10.9840 73.16 73.20 8.53
4493 10.9860 75.73 73.22 8.62
4494 10.9880 67.85 73.23 8.13
4495 10.9900 74.82 73.25 8.62
4496 10.9920 79.65 73.27 8.95
4497 10.9940 75.81 73.29 8.68
4498 10.9960 72.76 73.31 8.38
4499 10.9980 68.90 73.33 8.26
4500 11.0000 69.75 73.35 8.35
4501 11.0020 69.92 73.38 8.30
4502 11.0040 88.77 73.40 9.40
4503 11.0060 81.21 73.42 8.98
4504 11.0080 76.48 73.45 8.76
4505 11.0100 91.44 73.48 9.62
4506 11.0120 78.61 73.51 8.86
4507 11.0140 64.30 73.54 7.88
4508 11.0160 81.49 73.57 9.08
4509 11.0180 72.59 73.60 8.62
4510 11.0200 65.61 73.64 8.04
4511 11.0220 78.78 73.68 8.77
4512 11.0240 88.34 73.72 9.44
4513 11.0260 66.68 73.77 8.05
4514 11.0280 80.68 73.82 8.93
4515 11.0300 73.39 73.87 8.47
4516 11.0320 73.42 73.93 8.47
4517 11.0340 79.51 73.99 8.94
4518 11.0360 73.40 74.06 8.51
4519 11.0380 76.79 74.13 8.74
4520 11.0400 82.41 74.22 9.03
4521 11.0420 76.50 74.31 8.65
4522 11.0440 88.69 74.41 9.38
4523 11.0460 74.05 74.52 8.51
4524 11.0480 90.35 74.65 9.46
4525 11.0500 83.00 74.79 9.06
4526 11.0520 91.32 74.95 9.52
4527 11.0540 100.99 75.14 10.04
4528 11.0560 85.96 75.35 9.21
4529 11.0580 85.09 75.60 9.18
4530 11.0600 75.81 75.89 8.65
4531 11.0620 75.61 76.23 8.70
4532 11.0640 86.04 76.63 9.24
4533 11.0660 83.21 77.12 9.01
4534 11.0680 82.83 77.72 9.06
4535 11.0700 83.13 78.46 9.06
4536 11.0720 82.68 79.40 8.98
4537 11.0740 79.88 80.60 8.84
4538 11.0760 82.06 82.17 9.05
4539 11.0780 76.06 84.30 8.68
4540 11.0800 86.14 87.25 9.27
4541 11.0820 87.63 91.53 9.30
4542 11.0840 95.44 98.08 9.69
4543 11.0860 105.42 108.93 10.15
4544 11.0880 124.21 128.24 10.97
4545 11.0900 173.64 163.24 12.96
4546 11.0920 208.67 221.11 14.14
4547 11.0940 248.77 283.86 15.63
4548 11.0960 257.90 279.62 16.09
4549 11.0980 201.60 214.81 14.42
4550 11.1000 145.05 159.09 12.13
4551 11.1020 130.09 125.93 11.40
4552 11.1040 105.11 107.69 10.22
4553 11.1060 114.10 97.40 10.78
4554 11.1080 87.05 91.13 9.24
4555 11.1100 98.24 87.02 9.93
4556 11.1120 79.46 84.17 8.86
4557 11.1140 103.81 82.12 10.21
4558 11.1160 87.77 80.60 9.30
4559 11.1180 70.71 79.44 8.39
4560 11.1200 86.47 78.54 9.33
4561 11.1220 62.44 77.82 7.80
4562 11.1240 73.82 77.25 8.48
4563 11.1260 81.35 76.78 8.95
4564 11.1280 97.50 76.39 9.89
4565 11.1300 93.40 76.07 9.66
4566 11.1320 81.08 75.80 9.01
4567 11.1340 83.28 75.57 9.15
4568 11.1360 76.77 75.37 8.68
4569 11.1380 90.38 75.20 9.51
4570 11.1400 97.18 75.05 9.88
4571 11.1420 75.42 74.92 8.56
4572 11.1440 92.06 74.81 9.54
4573 11.1460 83.83 74.72 9.09
4574 11.1480 83.40 74.63 9.13
4575 11.1500 78.91 74.56 8.82
4576 11.1520 68.91 74.49 8.19
4577 11.1540 75.69 74.43 8.72
4578 11.1560 75.52 74.37 8.72
4579 11.1580 66.70 74.32 8.09
4580 11.1600 77.50 74.28 8.77
4581 11.1620 72.70 74.24 8.39
4582 11.1640 88.49 74.20 9.35
4583 11.1660 71.54 74.17 8.35
4584 11.1680 77.22 74.14 8.63
4585 11.1700 90.29 74.11 9.44
4586 11.1720 90.62 74.09 9.43
4587 11.1740 106.37 74.07 10.26
4588 11.1760 90.53 74.05 9.46
4589 11.1780 98.92 74.03 9.95
4590 11.1800 92.58 74.01 9.47
4591 11.1820 110.86 74.00 10.45
4592 11.1840 100.46 73.98 10.04
4593 11.1860 89.22 73.97 9.49
4594 11.1880 94.32 73.96 9.75
4595 11.1900 103.78 73.95 10.21
4596 11.1920 84.80 73.94 9.18
4597 11.1940 85.44 73.94 9.21
4598 11.1960 77.88 73.93 8.82
4599 11.1980 91.09 73.92 9.55
4600 11.2000 83.88 73.92 9.09
4601 11.2020 85.54 73.91 9.22
4602 11.2040 65.19 74.40 7.99
4603 11.2060 77.34 74.41 8.77
4604 11.2080 88.38 74.42 9.38
4605 11.2100 79.86 74.43 8.94
4606 11.2120 71.26 74.45 8.39
4607 11.2140 72.75 74.46 8.47
4608 11.2160 81.60 74.47 9.05
4609 11.2180 74.11 74.49 8.59
4610 11.2200 79.98 74.50 8.94
4611 11.2220 61.07 74.52 7.71
4612 11.2240 75.82 74.54 8.68
4613 11.2260 69.04 74.56 8.24
4614 11.2280 74.69 74.58 8.54
4615 11.2300 95.18 74.60 9.70
4616 11.2320 80.39 74.62 8.86
4617 11.2340 85.88 74.64 9.17
4618 11.2360 80.53 74.67 8.92
4619 11.2380 82.51 74.84 9.07
4620 11.2400 95.21 74.87 9.77
4621 11.2420 85.56 74.91 9.20
4622 11.2440 95.14 74.94 9.67
4623 11.2460 91.83 74.98 9.52
4624 11.2480 82.38 75.02 9.12
4625 11.2500 90.97 75.07 9.54
4626 11.2520 111.74 75.12 10.59
4627 11.2540 86.21 75.16 9.28
4628 11.2560 85.07 75.21 9.18
4629 11.2580 87.03 75.26 9.28
4630 11.2600 71.72 75.20 8.43
4631 11.2620 74.61 75.26 8.57
4632 11.2640 75.75 75.33 8.70
4633 11.2660 83.22 75.40 9.10
4634 11.2680 80.31 75.47 8.96
4635 11.2700 67.42 75.55 8.15
4636 11.2720 77.93 75.64 8.76
4637 11.2740 83.33 75.73 9.14
4638 11.2760 72.63 75.83 8.46
4639 11.2780 73.96 75.94 8.54
4640 11.2800 73.82 76.06 8.51
4641 11.2820 77.62 76.20 8.78
4642 11.2840 85.21 76.34 9.23
4643 11.2860 67.52 76.51 8.12
4644 11.2880 76.71 76.70 8.72
4645 11.2900 77.71 76.91 8.77
4646 11.2920 71.93 77.17 8.42
4647 11.2940 92.40 77.47 9.62
4648 11.2960 90.57 77.84 9.53
4649 11.2980 75.97 78.31 8.69
4650 11.3000 68.81 78.93 8.22
4651 11.3020 80.05 79.80 8.90
4652 11.3040 64.09 81.14 7.93
4653 11.3060 78.71 83.37 8.80
4654 11.3080 88.42 87.24 9.32
4655 11.3100 89.99 93.49 9.44
4656 11.3120 106.56 100.64 10.27
4657 11.3140 98.00 101.52 9.86
4658 11.3160 91.61 95.29 9.54
4659 11.3180 100.69 89.38 10.04
4660 11.3200 84.73 85.90 9.09
4661 11.3220 97.13 84.19 9.81
4662 11.3240 88.24 83.48 9.35
4663 11.3260 91.86 83.34 9.57
4664 11.3280 87.02 83.53 9.29
4665 11.3300 92.55 83.96 9.61
4666 11.3320 94.68 84.60 9.69
4667 11.3340 87.99 85.45 9.29
4668 11.3360 89.97 86.50 9.48
4669 11.3380 88.09 87.79 9.33
4670 11.3400 95.45 89.37 9.71
4671 11.3420 94.79 91.30 9.70
4672 11.3440 93.38 93.68 9.50
4673 11.3460 104.03 96.63 10.14
4674 11.3480 94.17 100.35 9.59
4675 11.3500 123.87 105.11 11.10
4676 11.3520 113.39 111.34 10.56
4677 11.3540 127.89 119.67 11.24
4678 11.3560 148.59 131.16 12.15
4679 11.3580 164.95 147.64 12.83
4680 11.3600 134.67 172.58 11.48
4681 11.3620 201.78 213.32 14.15
4682 11.3640 276.05 284.96 16.61
4683 11.3660 352.28 413.51 18.72
4684 11.3680 519.23 627.42 22.59
4685 11.3700 923.74 884.34 30.36
4686 11.3720 1104.61 934.79 33.22
4687 11.3740 814.55 705.88 28.37
4688 11.3760 499.28 468.37 22.30
4689 11.3780 320.61 318.02 17.92
4690 11.3800 261.23 233.91 16.14
4691 11.3820 177.56 187.36 13.18
4692 11.3840 172.69 160.24 13.01
4693 11.3860 168.08 143.55 12.92
4694 11.3880 131.53 133.14 11.48
4695 11.3900 111.19 127.09 10.41
4696 11.3920 122.46 124.62 11.07
4697 11.3940 126.49 125.76 11.24
4698 11.3960 131.21 131.66 11.41
4699 11.3980 143.54 145.41 11.89
4700 11.4000 149.25 173.16 12.00
4701 11.4020 159.43 223.60 12.44
4702 11.4040 189.78 296.97 13.53
4703 11.4060 286.22 343.70 16.69
4704 11.4080 322.23 299.74 17.78
4705 11.4100 320.32 224.91 17.92
4706 11.4120 220.98 172.94 14.94
4707 11.4140 160.24 145.42 12.68
4708 11.4160 131.83 133.08 11.44
4709 11.4180 123.05 124.70 11.02
4710 11.4200 130.53 113.61 11.40
4711 11.4220 139.10 103.59 11.80
4712 11.4240 119.98 96.66 10.95
4713 11.4260 111.66 92.11 10.62
4714 11.4280 90.76 89.02 9.46
4715 11.4300 94.24 86.80 9.64
4716 11.4320 96.70 85.13 9.74
4717 11.4340 98.67 83.82 9.95
4718 11.4360 85.32 82.75 9.21
4719 11.4380 85.30 81.88 9.23
4720 11.4400 83.92 81.15 9.15
4721 11.4420 87.21 80.53 9.30
4722 11.4440 81.46 80.00 9.03
4723 11.4460 79.89 79.54 8.91
4724 11.4480 74.18 79.13 8.56
4725 11.4500 76.04 78.78 8.72
4726 11.4520 78.03 78.46 8.74
4727 11.4540 74.92 78.18 8.62
4728 11.4560 73.34 77.93 8.48
4729 11.4580 77.02 77.71 8.77
4730 11.4600 77.75 77.50 8.82
4731 11.4620 56.99 77.32 7.49
4732 11.4640 67.20 77.15 8.17
4733 11.4660 79.38 77.00 8.89
4734 11.4680 80.20 76.85 8.85
4735 11.4700 81.89 76.72 8.97
4736 11.4720 69.13 76.60 8.21
4737 11.4740 82.00 76.49 9.01
4738 11.4760 89.08 76.39 9.48
4739 11.4780 85.41 76.30 9.20
4740 11.4800 75.59 76.21 8.59
4741 11.4820 70.82 76.11 8.35
4742 11.4840 60.67 76.04 7.73
4743 11.4860 72.41 75.97 8.57
4744 11.4880 73.36 75.90 8.57
4745 11.4900 83.64 75.84 9.14
4746 11.4920 77.75 75.78 8.80
4747 11.4940 85.77 75.72 9.24
4748 11.4960 86.39 75.67 9.23
4749 11.4980 77.26 75.62 8.68
4750 11.5000 66.06 75.58 8.13
4751 11.5020 67.23 75.53 8.15
4752 11.5040 64.71 75.49 8.03
4753 11.5060 82.00 75.45 9.05
4754 11.5080 73.54 75.42 8.55
4755 11.5100 53.70 75.38 7.22
4756 11.5120 84.01 75.35 9.18
4757 11.5140 85.81 75.32 9.28
4758 11.5160 82.42 75.29 9.07
4759 11.5180 78.38 75.26 8.78
4760 11.5200 80.55 75.23 9.03
4761 11.5220 65.89 75.21 8.08
4762 11.5240 78.50 75.18 8.88
4763 11.5260 67.96 75.16 8.20
4764 11.5280 75.08 75.14 8.67
4765 11.5300 82.64 75.12 9.17
4766 11.5320 71.65 75.10 8.45
4767 11.5340 80.53 75.08 8.92
4768 11.5360 77.63 75.06 8.70
4769 11.5380 85.24 75.05 9.20
4770 11.5400 70.96 75.03 8.35
4771 11.5420 67.93 74.54 8.18
4772 11.5440 80.24 74.53 8.93
4773 11.5460 86.30 74.53 9.27
4774 11.5480 77.62 74.64 8.73
4775 11.5500 75.14 74.64 8.69
4776 11.5520 74.53 74.64 8.65
4777 11.5540 69.63 74.64 8.22
4778 11.5560 72.43 74.64 8.40
4779 11.5580 78.93 74.64 8.86
4780 11.5600 95.10 74.64 9.75
4781 11.5620 82.47 74.64 9.00
4782 11.5640 93.44 74.64 9.76
4783 11.5660 78.07 74.64 8.81
4784 11.5680 78.49 74.65 8.84
4785 11.5700 60.99 74.65 7.61
4786 11.5720 82.66 74.65 9.04
4787 11.5740 76.45 74.66 8.71
4788 11.5760 78.90 74.52 8.82
4789 11.5780 77.35 74.52 8.76
4790 11.5800 85.32 74.53 9.23
4791 11.5820 71.05 74.54 8.43
4792 11.5840 61.81 74.55 7.88
4793 11.5860 82.33 74.55 9.12
4794 11.5880 80.03 74.55 8.90
4795 11.5900 84.92 74.56 9.20
4796 11.5920 76.64 74.57 8.73
4797 11.5940 92.72 74.58 9.66
4798 11.5960 65.05 74.59 8.04
4799 11.5980 82.15 74.60 9.12
4800 11.6000 89.14 74.61 9.51
4801 11.6020 72.30 74.62 8.47
4802 11.6040 73.02 74.63 8.50
4803 11.6060 90.54 74.64 9.56
4804 11.6080 81.71 74.65 9.02
4805 11.6100 76.30 74.66 8.74
4806 11.6120 86.20 74.68 9.37
4807 11.6140 77.27 74.69 8.79
4808 11.6160 74.42 74.70 8.55
4809 11.6180 82.14 74.72 8.98
4810 11.6200 81.58 74.73 8.88
4811 11.6220 88.90 74.75 9.34
4812 11.6240 75.06 74.77 8.64
4813 11.6260 79.83 74.78 8.96
4814 11.6280 77.65 74.80 8.77
4815 11.6300 99.20 74.82 9.91
4816 11.6320 93.68 74.84 9.64
4817 11.6340 78.71 74.87 8.81
4818 11.6360 96.47 74.89 9.79
4819 11.6380 96.65 74.92 9.88
4820 11.6400 77.28 74.94 8.72
4821 11.6420 78.35 74.97 8.78
4822 11.6440 61.83 75.00 7.79
4823 11.6460 82.44 75.04 9.06
4824 11.6480 76.26 75.07 8.68
4825 11.6500 75.39 75.11 8.64
4826 11.6520 83.82 75.16 9.06
4827 11.6540 86.14 75.20 9.23
4828 11.6560 84.47 75.25 9.19
4829 11.6580 74.82 75.31 8.60
4830 11.6600 83.87 75.37 9.18
4831 11.6620 85.86 75.43 9.22
4832 11.6640 86.15 75.51 9.29
4833 11.6660 75.32 75.59 8.59
4834 11.6680 83.13 75.68 9.10
4835 11.6700 69.86 75.78 8.29
4836 11.6720 72.67 75.89 8.48
4837 11.6740 77.23 76.02 8.69
4838 11.6760 73.17 76.17 8.48
4839 11.6780 73.04 76.33 8.52
4840 11.6800 82.44 76.52 9.04
4841 11.6820 74.76 76.74 8.52
4842 11.6840 74.79 77.00 8.55
4843 11.6860 67.29 77.30 8.19
4844 11.6880 74.52 77.66 8.66
4845 11.6900 77.62 78.09 8.81
4846 11.6920 75.30 78.61 8.68
4847 11.6940 68.94 79.24 8.23
4848 11.6960 78.50 80.04 8.84
4849 11.6980 66.22 81.04 7.97
4850 11.7000 71.90 82.34 8.37
4851 11.7020 83.75 84.06 9.07
4852 11.7040 71.35 86.39 8.32
4853 11.7060 88.69 89.66 9.41
4854 11.7080 81.15 94.48 8.95
4855 11.7100 94.68 102.09 9.71
4856 11.7120 104.32 115.06 10.18
4857 11.7140 113.38 138.15 10.60
4858 11.7160 129.85 177.78 11.34
4859 11.7180 157.95 235.10 12.32
4860 11.7200 199.59 277.94 13.79
4861 11.7220 266.77 253.10 16.17
4862 11.7240 279.64 194.27 16.77
4863 11.7260 267.87 148.49 16.56
4864 11.7280 197.90 120.93 14.18
4865 11.7300 141.85 105.41 11.92
4866 11.7320 94.18 96.49 9.64
4867 11.7340 105.78 90.98 10.27
4868 11.7360 75.17 87.31 8.72
4869 11.7380 78.85 84.74 8.88
4870 11.7400 83.19 82.86 9.19
4871 11.7420 78.71 81.45 8.96
4872 11.7440 68.90 80.36 8.33
4873 11.7460 67.32 79.51 8.20
4874 11.7480 62.39 78.84 7.82
4875 11.7500 83.93 78.29 9.13
4876 11.7520 94.14 77.84 9.74
4877 11.7540 83.93 77.46 9.12
4878 11.7560 76.59 77.15 8.71
4879 11.7580 81.04 76.88 8.95
4880 11.7600 81.43 76.65 8.98
4881 11.7620 87.75 76.55 9.34
4882 11.7640 77.00 76.39 8.72
4883 11.7660 83.18 76.24 9.07
4884 11.7680 74.85 76.11 8.56
4885 11.7700 77.00 76.00 8.83
4886 11.7720 66.96 75.90 8.16
4887 11.7740 70.11 75.81 8.39
4888 11.7760 74.71 75.74 8.63
4889 11.7780 78.56 75.67 8.81
4890 11.7800 83.27 75.60 9.05
4891 11.7820 79.14 75.55 8.90
4892 11.7840 73.81 75.50 8.60
4893 11.7860 66.80 75.45 8.12
4894 11.7880 63.24 75.41 7.94
4895 11.7900 74.04 75.38 8.60
4896 11.7920 85.69 75.34 9.27
4897 11.7940 76.83 75.31 8.75
4898 11.7960 70.33 75.29 8.37
4899 11.7980 76.00 75.26 8.75
4900 11.8000 73.92 75.24 8.61
4901 11.8020 57.90 75.22 7.57
4902 11.8040 69.59 75.20 8.36
4903 11.8060 82.50 75.18 9.07
4904 11.8080 74.68 75.17 8.59
4905 11.8100 74.93 75.16 8.65
4906 11.8120 80.40 75.15 8.96
4907 11.8140 67.41 75.14 8.19
4908 11.8160 66.85 75.13 8.12
4909 11.8180 83.00 75.12 9.14
4910 11.8200 73.46 75.11 8.55
4911 11.8220 74.30 75.11 8.54
4912 11.8240 57.30 75.11 7.56
4913 11.8260 64.26 75.10 8.00
4914 11.8280 72.81 75.10 8.50
4915 11.8300 68.44 75.10 8.26
4916 11.8320 64.04 75.10 7.97
4917 11.8340 77.55 75.10 8.74
4918 11.8360 79.84 75.11 8.91
4919 11.8380 84.07 75.11 9.18
4920 11.8400 74.21 75.11 8.52
4921 11.8420 69.77 75.12 8.36
4922 11.8440 61.90 75.13 7.84
4923 11.8460 59.99 75.14 7.72
4924 11.8480 70.50 75.19 8.38
4925 11.8500 67.39 75.21 8.22
4926 11.8520 72.51 75.22 8.45
4927 11.8540 77.83 75.24 8.67
4928 11.8560 75.42 75.25 8.66
4929 11.8580 74.21 75.27 8.62
4930 11.8600 80.62 75.42 9.06
4931 11.8620 68.28 75.44 8.31
4932 11.8640 68.84 75.47 8.28
4933 11.8660 73.10 75.50 8.45
4934 11.8680 77.06 75.54 8.72
4935 11.8700 62.14 75.57 7.77
4936 11.8720 69.68 75.61 8.25
4937 11.8740 74.00 75.66 8.56
4938 11.8760 71.99 75.71 8.47
4939 11.8780 66.29 75.76 8.09
4940 11.8800 61.76 75.82 7.82
4941 11.8820 82.66 75.89 9.09
4942 11.8840 70.25 75.96 8.29
4943 11.8860 67.57 76.04 8.04
4944 11.8880 80.68 76.13 8.92
4945 11.8900 74.87 76.24 8.58
4946 11.8920 73.56 76.35 8.59
4947 11.8940 78.76 76.49 8.87
4948 11.8960 75.77 76.53 8.65
4949 11.8980 77.33 76.70 8.69
4950 11.9000 73.42 76.90 8.48
4951 11.9020 77.76 77.14 8.74
4952 11.9040 67.15 77.41 8.16
4953 11.9060 89.08 77.73 9.42
4954 11.9080 71.44 78.12 8.36
4955 11.9100 76.76 78.59 8.81
4956 11.9120 73.37 79.16 8.53
4957 11.9140 92.89 79.87 9.67
4958 11.9160 79.32 80.76 8.83
4959 11.9180 69.43 81.92 8.23
4960 11.9200 65.08 83.44 8.01
4961 11.9220 77.89 85.50 8.75
4962 11.9240 86.73 88.38 9.23
4963 11.9260 81.35 92.64 8.96
4964 11.9280 84.35 99.38 9.11
4965 11.9300 82.66 110.86 9.06
4966 11.9320 108.07 131.13 10.30
4967 11.9340 132.58 165.41 11.48
4968 11.9360 173.83 213.85 13.08
4969 11.9380 270.96 249.22 16.46
4970 11.9400 232.49 228.57 15.29
4971 11.9420 164.72 179.24 12.72
4972 11.9440 138.12 140.04 11.74
4973 11.9460 115.93 116.09 10.70
4974 11.9480 101.14 102.48 10.09
4975 11.9500 100.80 94.66 9.99
4976 11.9520 84.23 89.86 9.07
4977 11.9540 85.29 86.69 9.26
4978 11.9560 109.08 84.48 10.53
4979 11.9580 75.75 82.88 8.60
4980 11.9600 76.86 81.69 8.76
4981 11.9620 74.30 80.80 8.60
4982 11.9640 72.07 80.11 8.45
4983 11.9660 85.55 79.58 9.26
4984 11.9680 73.54 79.17 8.57
4985 11.9700 78.25 78.86 8.75
4986 11.9720 82.29 78.61 9.04
4987 11.9740 86.87 78.43 9.30
4988 11.9760 84.75 78.31 9.23
4989 11.9780 85.98 78.22 9.27
4990 11.9800 72.34 78.18 8.49
4991 11.9820 88.69 78.18 9.41
4992 11.9840 72.71 78.22 8.49
4993 11.9860 75.16 78.30 8.69
4994 11.9880 62.79 78.41 7.90
4995 11.9900 82.36 78.57 9.13
4996 11.9920 64.16 78.77 7.99
4997 11.9940 83.84 79.03 9.19
4998 11.9960 86.57 79.36 9.27
4999 11.9980 89.92 79.76 9.41
5000 12.0000 92.11 80.25 8.73
5001 12.0020 68.02 80.86 7.53
5002 12.0040 77.44 81.63 8.04
5003 12.0060 88.81 82.59 8.60
5004 12.0080 98.43 83.83 9.07
5005 12.0100 88.19 85.46 8.58
5006 12.0120 84.82 87.63 8.41
5007 12.0140 99.47 90.68 9.09
5008 12.0160 106.13 95.20 9.40
5009 12.0180 118.96 102.38 9.94
5010 12.0200 132.36 114.33 10.46
5011 12.0220 145.10 133.88 10.93
5012 12.0240 159.46 161.96 11.50
5013 12.0260 181.14 187.61 12.25
5014 12.0280 203.88 190.80 13.01
5015 12.0300 240.66 185.86 14.07
5016 12.0320 280.85 199.26 15.13
5017 12.0340 252.50 240.22 14.38
5018 12.0360 223.77 295.79 13.70
5019 12.0380 246.91 309.16 14.55
5020 12.0400 230.15 255.55 14.07
5021 12.0420 179.60 192.57 12.34
5022 12.0440 121.37 149.16 10.14
5023 12.0460 109.02 123.43 9.55
5024 12.0480 104.51 108.64 9.32
5025 12.0500 89.10 99.80 8.64
5026 12.0520 90.96 94.11 8.71
5027 12.0540 75.61 90.18 7.95
5028 12.0560 80.52 87.34 8.19
5029 12.0580 85.01 85.21 8.45
5030 12.0600 79.79 83.58 8.17
5031 12.0620 92.95 82.31 8.77
5032 12.0640 73.34 81.29 7.83
5033 12.0660 75.96 80.46 7.95
5034 12.0680 80.62 79.78 8.19
5035 12.0700 79.54 79.22 8.15
5036 12.0720 73.94 78.74 7.85
5037 12.0740 65.10 78.34 7.39
5038 12.0760 76.20 77.99 7.97
5039 12.0780 75.22 77.69 7.91
5040 12.0800 75.48 77.43 7.88
5041 12.0820 67.71 77.20 7.49
5042 12.0840 68.25 77.00 7.57
5043 12.0860 69.50 76.82 7.63
5044 12.0880 69.69 76.66 7.64
5045 12.0900 75.25 76.52 7.89
5046 12.0920 71.13 76.40 7.70
5047 12.0940 71.63 76.28 7.73
5048 12.0960 82.82 76.18 8.34
5049 12.0980 85.59 76.08 8.43
5050 12.1000 67.83 76.00 7.50
5051 12.1020 65.38 75.92 7.39
5052 12.1040 66.30 75.85 7.43
5053 12.1060 67.83 75.78 7.49
5054 12.1080 71.14 75.72 7.69
5055 12.1100 73.45 75.68 7.80
5056 12.1120 82.78 75.63 8.32
5057 12.1140 81.54 75.58 8.23
5058 12.1160 73.07 75.44 7.83
5059 12.1180 87.38 75.40 8.53
5060 12.1200 80.23 75.37 8.18
5061 12.1220 67.88 75.33 7.54
5062 12.1240 72.88 75.30 7.80
5063 12.1260 71.52 75.27 7.73
5064 12.1280 70.00 75.25 7.63
5065 12.1300 76.53 75.22 8.03
5066 12.1320 75.23 75.20 7.96
5067 12.1340 81.42 75.17 8.24
5068 12.1360 72.31 75.15 7.79
5069 12.1380 78.79 75.13 8.11
5070 12.1400 68.22 75.11 7.54
5071 12.1420 72.26 75.09 7.72
5072 12.1440 79.45 75.08 8.09
5073 12.1460 72.16 75.06 7.72
5074 12.1480 75.67 75.05 7.96
5075 12.1500 69.29 75.03 7.60
5076 12.1520 75.77 75.02 7.94
5077 12.1540 83.29 75.01 8.31
5078 12.1560 81.87 74.99 8.24
5079 12.1580 76.59 74.98 7.99
5080 12.1600 72.82 74.97 7.78
5081 12.1620 68.17 74.96 7.52
5082 12.1640 75.98 74.95 7.98
5083 12.1660 78.23 74.94 8.10
5084 12.1680 71.32 74.93 7.72
5085 12.1700 68.19 74.93 7.53
5086 12.1720 83.61 74.92 8.35
5087 12.1740 85.95 74.91 8.49
5088 12.1760 77.55 74.90 8.05
5089 12.1780 69.20 74.90 7.59
5090 12.1800 66.74 74.89 7.48
5091 12.1820 75.93 74.88 7.93
5092 12.1840 75.49 74.88 7.91
5093 12.1860 77.56 74.87 8.03
5094 12.1880 71.43 74.87 7.70
5095 12.1900 70.93 74.86 7.67
5096 12.1920 69.41 74.86 7.61
5097 12.1940 79.77 74.86 8.12
5098 12.1960 67.92 74.85 7.51
5099 12.1980 68.20 74.85 7.54
5100 12.2000 68.59 74.85 7.55
5101 12.2020 76.72 74.84 7.97
5102 12.2040 78.73 74.84 8.09
5103 12.2060 81.25 74.79 8.23
5104 12.2080 76.45 74.79 8.02
5105 12.2100 75.42 74.79 7.91
5106 12.2120 74.81 74.79 7.85
5107 12.2140 80.49 74.79 8.14
5108 12.2160 90.42 74.80 8.65
5109 12.2180 75.41 74.68 7.95
5110 12.2200 84.83 74.68 8.43
5111 12.2220 79.99 74.69 8.17
5112 12.2240 80.54 74.69 8.18
5113 12.2260 69.51 74.70 7.62
5114 12.2280 73.46 74.71 7.83
5115 12.2300 82.07 74.71 8.26
5116 12.2320 78.22 74.72 8.06
5117 12.2340 78.22 74.73 8.09
5118 12.2360 82.60 74.74 8.31
5119 12.2380 78.83 74.75 8.09
5120 12.2400 83.67 74.77 8.34
5121 12.2420 82.13 74.78 8.32
5122 12.2440 82.07 74.80 8.29
5123 12.2460 77.92 74.82 8.04
5124 12.2480 76.63 74.84 7.96
5125 12.2500 93.67 74.86 8.78
5126 12.2520 83.13 74.89 8.32
5127 12.2540 73.43 74.93 7.81
5128 12.2560 69.61 74.96 7.60
5129 12.2580 71.04 75.01 7.69
5130 12.2600 76.20 75.06 7.98
5131 12.2620 84.80 75.13 8.39
5132 12.2640 73.01 75.20 7.79
5133 12.2660 75.86 75.30 7.91
5134 12.2680 81.39 75.42 8.19
5135 12.2700 61.29 75.57 7.11
5136 12.2720 81.20 75.76 8.21
5137 12.2740 79.48 76.01 8.13
5138 12.2760 83.23 76.34 8.32
5139 12.2780 72.07 76.81 7.79
5140 12.2800 83.42 77.48 8.32
5141 12.2820 94.59 78.54 8.84
5142 12.2840 80.78 80.30 8.19
5143 12.2860 85.95 83.39 8.46
5144 12.2880 95.56 88.61 8.88
5145 12.2900 97.31 96.39 9.02
5146 12.2920 105.07 103.93 9.35
5147 12.2940 100.75 103.63 9.17
5148 12.2960 99.78 95.88 9.15
5149 12.2980 90.56 88.23 8.68
5150 12.3000 77.49 83.15 8.01
5151 12.3020 88.21 80.17 8.56
5152 12.3040 67.92 78.45 7.52
5153 12.3060 74.33 77.43 7.85
5154 12.3080 81.50 76.77 8.21
5155 12.3100 71.78 76.31 7.72
5156 12.3120 80.27 75.98 8.16
5157 12.3140 71.67 75.73 7.71
5158 12.3160 62.05 75.54 7.18
5159 12.3180 77.53 75.39 8.03
5160 12.3200 85.39 75.28 8.40
5161 12.3220 72.36 75.18 7.78
5162 12.3240 76.39 75.10 7.99
5163 12.3260 67.97 75.04 7.53
5164 12.3280 72.28 74.98 7.80
5165 12.3300 80.41 74.94 8.19
5166 12.3320 77.82 74.90 8.01
5167 12.3340 72.29 74.86 7.76
5168 12.3360 66.05 74.83 7.44
5169 12.3380 66.18 74.81 7.44
5170 12.3400 79.16 74.79 8.11
5171 12.3420 76.52 74.77 7.95
5172 12.3440 74.91 74.75 7.89
5173 12.3460 70.61 74.74 7.67
5174 12.3480 82.76 74.72 8.29
5175 12.3500 72.06 74.71 7.73
5176 12.3520 67.56 74.70 7.47
5177 12.3540 68.87 74.69 7.59
5178 12.3560 82.06 74.68 8.27
5179 12.3580 70.91 74.67 7.69
5180 12.3600 73.18 74.66 7.82
5181 12.3620 72.47 74.66 7.75
5182 12.3640 72.45 74.65 7.74
5183 12.3660 80.82 74.64 8.17
5184 12.3680 90.52 74.64 8.66
5185 12.3700 78.67 74.63 8.12
5186 12.3720 81.58 74.63 8.26
5187 12.3740 77.26 74.62 8.02
5188 12.3760 74.08 74.62 7.86
5189 12.3780 71.23 74.61 7.69
5190 12.3800 68.39 74.61 7.56
5191 12.3820 67.79 74.60 7.52
5192 12.3840 73.58 74.60 7.87
5193 12.3860 76.70 74.60 7.99
5194 12.3880 73.10 74.60 7.78
5195 12.3900 72.89 74.59 7.76
5196 12.3920 76.12 74.59 7.97
5197 12.3940 76.19 74.59 7.99
5198 12.3960 78.65 74.58 8.10
5199 12.3980 74.31 74.58 7.87
5200 12.4000 66.75 74.58 7.48
5201 12.4020 73.68 74.58 7.85
5202 12.4040 75.14 74.58 7.92
5203 12.4060 79.18 74.57 8.12
5204 12.4080 79.66 74.57 8.12
5205 12.4100 73.71 74.57 7.81
5206 12.4120 80.69 74.57 8.20
5207 12.4140 71.94 74.57 7.70
5208 12.4160 68.43 74.57 7.48
5209 12.4180 73.57 74.56 7.82
5210 12.4200 79.49 74.56 8.11
5211 12.4220 68.65 74.56 7.52
5212 12.4240 65.51 74.56 7.39
5213 12.4260 74.21 74.56 7.84
5214 12.4280 70.57 74.56 7.66
5215 12.4300 75.73 74.56 7.91
5216 12.4320 62.56 74.56 7.21
5217 12.4340 71.79 74.56 7.73
5218 12.4360 69.18 74.56 7.59
5219 12.4380 75.51 74.56 7.93
5220 12.4400 78.88 74.56 8.08
5221 12.4420 76.54 74.56 7.97
5222 12.4440 77.42 74.56 8.02
5223 12.4460 70.76 74.56 7.68
5224 12.4480 68.98 74.56 7.58
5225 12.4500 59.50 74.56 7.05
5226 12.4520 69.52 74.56 7.59
5227 12.4540 69.46 74.56 7.60
5228 12.4560 63.74 74.56 7.28
5229 12.4580 71.03 74.56 7.69
5230 12.4600 68.01 74.56 7.52
5231 12.4620 68.13 74.56 7.54
5232 12.4640 79.31 74.56 8.11
5233 12.4660 72.20 74.56 7.74
5234 12.4680 70.50 74.57 7.61
5235 12.4700 60.47 74.57 7.07
5236 12.4720 66.78 74.57 7.47
5237 12.4740 74.33 74.57 7.87
5238 12.4760 78.07 74.58 8.02
5239 12.4780 75.56 74.57 7.94
5240 12.4800 80.39 74.57 8.17
5241 12.4820 74.85 74.58 7.90
5242 12.4840 73.67 74.58 7.82
5243 12.4860 67.42 74.59 7.47
5244 12.4880 76.59 74.60 7.93
5245 12.4900 61.12 74.61 7.14
5246 12.4920 76.32 74.62 7.97
5247 12.4940 79.07 74.63 8.11
5248 12.4960 70.19 74.65 7.64
5249 12.4980 85.86 74.67 8.47
5250 12.5000 82.04 74.69 8.27
5251 12.5020 73.94 74.71 7.85
5252 12.5040 73.89 74.75 7.86
5253 12.5060 78.16 74.79 8.06
5254 12.5080 72.65 74.83 7.77
5255 12.5100 69.01 74.90 7.60
5256 12.5120 70.35 74.98 7.66
5257 12.5140 78.21 75.08 8.06
5258 12.5160 64.31 75.22 7.29
5259 12.5180 67.37 75.42 7.46
5260 12.5200 68.68 75.71 7.56
5261 12.5220 82.74 76.16 8.30
5262 12.5240 89.29 76.92 8.61
5263 12.5260 90.35 78.24 8.66
5264 12.5280 77.87 80.44 8.09
5265 12.5300 88.32 83.58 8.60
5266 12.5320 83.74 86.36 8.35
5267 12.5340 83.21 85.91 8.30
5268 12.5360 78.19 82.80 8.05
5269 12.5380 85.00 79.84 8.36
5270 12.5400 76.61 77.87 8.02
5271 12.5420 77.84 76.70 8.06
5272 12.5440 69.21 76.03 7.59
5273 12.5460 76.17 75.62 7.91
5274 12.5480 66.51 75.36 7.38
5275 12.5500 76.38 75.17 7.92
5276 12.5520 72.02 75.04 7.71
5277 12.5540 73.25 74.94 7.80
5278 12.5560 72.62 74.87 7.78
5279 12.5580 69.78 74.81 7.61
5280 12.5600 76.65 74.76 7.95
5281 12.5620 80.55 74.72 8.19
5282 12.5640 79.09 74.69 8.10
5283 12.5660 66.93 74.66 7.44
5284 12.5680 86.50 74.64 8.46
5285 12.5700 82.35 74.62 8.23
5286 12.5720 74.05 74.61 7.83
5287 12.5740 70.74 74.59 7.68
5288 12.5760 67.69 74.58 7.50
5289 12.5780 78.45 74.57 8.06
5290 12.5800 71.63 74.56 7.72
5291 12.5820 67.68 74.56 7.49
5292 12.5840 86.68 74.55 8.44
5293 12.5860 78.47 74.55 8.06
5294 12.5880 67.36 74.54 7.50
5295 12.5900 75.86 74.54 7.94
5296 12.5920 69.64 74.54 7.62
5297 12.5940 81.39 74.54 8.22
5298 12.5960 78.72 74.54 8.07
5299 12.5980 74.46 74.54 7.88
5300 12.6000 72.06 74.55 7.74
5301 12.6020 84.60 74.56 8.35
5302 12.6040 73.24 74.58 7.78
5303 12.6060 58.35 74.61 6.94
5304 12.6080 75.48 74.66 7.94
5305 12.6100 81.45 74.75 8.23
5306 12.6120 78.89 74.91 8.10
5307 12.6140 73.33 75.13 7.78
5308 12.6160 60.46 75.33 7.04
5309 12.6180 71.18 75.31 7.66
5310 12.6200 79.43 75.09 8.11
5311 12.6220 73.73 74.87 7.85
5312 12.6240 74.86 74.72 7.93
5313 12.6260 75.67 74.63 7.92
5314 12.6280 99.50 74.58 9.03
5315 12.6300 73.66 74.56 7.80
5316 12.6320 65.21 74.53 7.33
5317 12.6340 78.99 74.52 8.08
5318 12.6360 64.34 74.51 7.36
5319 12.6380 64.76 74.50 7.39
5320 12.6400 75.34 74.49 7.93
5321 12.6420 89.20 74.49 8.59
5322 12.6440 86.16 74.48 8.45
5323 12.6460 79.63 74.48 8.16
5324 12.6480 73.20 74.48 7.81
5325 12.6500 81.24 74.47 8.19
5326 12.6520 76.15 74.47 7.92
5327 12.6540 75.25 74.47 7.92
5328 12.6560 83.82 74.47 8.35
5329 12.6580 76.33 74.46 7.99
5330 12.6600 85.43 74.46 8.43
5331 12.6620 71.95 74.46 7.77
5332 12.6640 81.96 74.46 8.29
5333 12.6660 80.97 74.46 8.22
5334 12.6680 84.11 74.46 8.34
5335 12.6700 81.14 74.46 8.21
5336 12.6720 79.56 74.46 8.16
5337 12.6740 79.69 74.46 8.11
5338 12.6760 64.70 74.45 7.33
5339 12.6780 84.97 74.45 8.35
5340 12.6800 74.25 74.45 7.84
5341 12.6820 78.29 74.45 8.04
5342 12.6840 86.57 74.45 8.47
5343 12.6860 76.28 74.45 7.97
5344 12.6880 76.22 74.45 7.98
5345 12.6900 79.08 74.45 8.09
5346 12.6920 75.73 74.45 7.97
5347 12.6940 76.94 74.45 8.03
5348 12.6960 78.79 74.45 8.09
5349 12.6980 78.52 74.45 8.08
5350 12.7000 80.65 74.45 8.16
5351 12.7020 83.40 74.45 8.29
5352 12.7040 68.92 74.45 7.57
5353 12.7060 83.09 74.45 8.31
5354 12.7080 73.00 74.45 7.78
5355 12.7100 73.45 74.45 7.85
5356 12.7120 74.94 74.45 7.88
5357 12.7140 59.84 74.45 7.06
5358 12.7160 65.96 74.45 7.40
5359 12.7180 72.94 74.45 7.78
5360 12.7200 75.31 74.45 7.87
5361 12.7220 75.03 74.45 7.88
5362 12.7240 77.55 74.45 8.03
5363 12.7260 68.87 74.45 7.57
5364 12.7280 71.74 74.45 7.74
5365 12.7300 73.28 74.45 7.81
5366 12.7320 68.63 74.46 7.57
5367 12.7340 61.21 74.46 7.13
5368 12.7360 79.98 74.46 8.15
5369 12.7380 81.90 74.46 8.23
5370 12.7400 73.60 74.46 7.79
5371 12.7420 75.73 74.47 7.92
5372 12.7440 68.60 74.47 7.55
5373 12.7460 76.38 74.47 7.96
5374 12.7480 81.02 74.48 8.19
5375 12.7500 69.29 74.48 7.59
5376 12.7520 75.99 74.48 7.95
5377 12.7540 82.83 74.49 8.32
5378 12.7560 80.42 74.49 8.17
5379 12.7580 72.25 74.50 7.74
5380 12.7600 78.58 74.51 8.07
5381 12.7620 72.39 74.51 7.72
5382 12.7640 76.44 74.52 7.98
5383 12.7660 78.42 74.53 8.07
5384 12.7680 78.36 74.54 8.06
5385 12.7700 74.18 74.55 7.83
5386 12.7720 72.92 74.57 7.81
5387 12.7740 96.41 74.58 8.96
5388 12.7760 83.54 74.60 8.34
5389 12.7780 79.28 74.62 8.12
5390 12.7800 76.04 74.64 7.94
5391 12.7820 76.00 74.67 7.93
5392 12.7840 70.33 74.70 7.66
5393 12.7860 71.43 74.73 7.73
5394 12.7880 75.95 74.78 7.96
5395 12.7900 66.76 74.83 7.47
5396 12.7920 71.19 74.89 7.69
5397 12.7940 73.41 74.97 7.83
5398 12.7960 77.32 75.07 7.98
5399 12.7980 71.79 75.19 7.66
5400 12.8000 82.08 75.35 8.28
5401 12.8020 81.32 75.57 8.25
5402 12.8040 73.77 75.86 7.86
5403 12.8060 75.57 76.28 7.96
5404 12.8080 75.14 76.91 7.93
5405 12.8100 78.00 77.94 8.07
5406 12.8120 75.64 79.71 7.94
5407 12.8140 85.20 82.70 8.40
5408 12.8160 89.42 87.32 8.64
5409 12.8180 104.48 92.85 9.33
5410 12.8200 108.61 95.40 9.53
5411 12.8220 105.00 91.95 9.36
5412 12.8240 106.58 86.40 9.38
5413 12.8260 82.41 82.07 8.27
5414 12.8280 81.56 79.32 8.24
5415 12.8300 68.61 77.71 7.57
5416 12.8320 70.47 76.77 7.66
5417 12.8340 83.26 76.18 8.33
5418 12.8360 81.88 75.79 8.27
5419 12.8380 78.99 75.51 8.10
5420 12.8400 69.83 75.31 7.62
5421 12.8420 74.28 75.15 7.87
5422 12.8440 68.93 75.03 7.58
5423 12.8460 61.66 74.94 7.14
5424 12.8480 80.80 74.86 8.16
5425 12.8500 92.20 74.80 8.75
5426 12.8520 72.96 74.75 7.78
5427 12.8540 67.65 74.71 7.51
5428 12.8560 75.06 74.67 7.87
5429 12.8580 62.77 74.64 7.22
5430 12.8600 77.34 74.61 8.01
5431 12.8620 78.41 74.59 8.07
5432 12.8640 72.86 74.57 7.80
5433 12.8660 61.62 74.55 7.18
5434 12.8680 69.45 74.54 7.59
5435 12.8700 76.42 74.52 7.91
5436 12.8720 64.31 74.51 7.34
5437 12.8740 74.53 74.50 7.88
5438 12.8760 79.67 74.49 8.13
5439 12.8780 63.90 74.48 7.28
5440 12.8800 87.22 74.47 8.50
5441 12.8820 79.03 74.46 8.08
5442 12.8840 68.31 74.46 7.50
5443 12.8860 73.04 74.45 7.80
5444 12.8880 67.82 74.45 7.50
5445 12.8900 71.61 74.44 7.72
5446 12.8920 73.37 74.44 7.82
5447 12.8940 72.21 74.43 7.76
5448 12.8960 70.09 74.43 7.63
5449 12.8980 74.56 74.42 7.85
5450 12.9000 70.10 74.42 7.64
5451 12.9020 75.20 74.42 7.92
5452 12.9040 71.61 74.41 7.73
5453 12.9060 84.61 74.41 8.38
5454 12.9080 67.25 74.41 7.49
5455 12.9100 69.10 74.40 7.58
5456 12.9120 68.29 74.40 7.53
5457 12.9140 71.89 74.40 7.70
5458 12.9160 83.61 74.40 8.32
5459 12.9180 82.59 74.39 8.23
5460 12.9200 93.23 74.39 8.77
5461 12.9220 69.55 74.39 7.61
5462 12.9240 75.91 74.39 7.96
5463 12.9260 71.01 74.39 7.72
5464 12.9280 74.72 74.38 7.90
5465 12.9300 67.52 74.38 7.52
5466 12.9320 83.08 74.38 8.31
5467 12.9340 78.26 74.38 8.06
5468 12.9360 76.51 74.38 7.95
5469 12.9380 74.44 74.38 7.88
5470 12.9400 65.77 74.37 7.36
5471 12.9420 64.16 74.37 7.23
5472 12.9440 88.76 74.37 8.57
5473 12.9460 82.91 74.37 8.34
5474 12.9480 82.73 74.37 8.33
5475 12.9500 76.07 74.37 7.94
5476 12.9520 63.50 74.37 7.25
5477 12.9540 70.22 74.37 7.64
5478 12.9560 74.63 74.68 7.88
5479 12.9580 75.65 74.68 7.94
5480 12.9600 76.41 74.69 7.96
5481 12.9620 70.31 74.70 7.61
5482 12.9640 69.85 74.70 7.59
5483 12.9660 80.72 74.71 8.19
5484 12.9680 82.18 74.71 8.25
5485 12.9700 69.24 74.72 7.57
5486 12.9720 78.69 74.73 8.13
5487 12.9740 72.84 74.74 7.81
5488 12.9760 70.23 74.74 7.64
5489 12.9780 67.40 74.75 7.53
5490 12.9800 73.71 74.76 7.83
5491 12.9820 80.54 74.77 8.18
5492 12.9840 73.55 74.78 7.83
5493 12.9860 73.97 74.79 7.84
5494 12.9880 74.95 74.80 7.86
5495 12.9900 87.79 74.81 8.53
5496 12.9920 85.31 74.82 8.41
5497 12.9940 79.65 74.83 8.14
5498 12.9960 74.96 74.84 7.91
5499 12.9980 80.90 74.85 8.20
5500 13.0000 71.89 74.87 7.76
5501 13.0020 68.41 74.88 7.54
5502 13.0040 78.83 74.89 8.05
5503 13.0060 77.67 74.91 8.04
5504 13.0080 74.02 74.92 7.83
5505 13.0100 77.29 74.94 8.03
5506 13.0120 78.70 74.95 8.10
5507 13.0140 70.87 74.96 7.68
5508 13.0160 75.57 74.98 7.93
5509 13.0180 79.46 75.00 8.15
5510 13.0200 79.57 75.02 8.13
5511 13.0220 74.55 75.04 7.87
5512 13.0240 69.89 75.07 7.61
5513 13.0260 75.07 75.09 7.90
5514 13.0280 75.80 75.11 7.95
5515 13.0300 71.12 75.14 7.66
5516 13.0320 69.02 75.17 7.57
5517 13.0340 82.53 75.19 8.28
5518 13.0360 73.85 75.22 7.84
5519 13.0380 65.20 75.26 7.39
5520 13.0400 83.02 75.29 8.30
5521 13.0420 69.13 75.32 7.58
5522 13.0440 79.07 75.36 8.09
5523 13.0460 75.60 75.40 7.94
5524 13.0480 71.39 75.44 7.68
5525 13.0500 64.86 75.49 7.34
5526 13.0520 84.20 75.53 8.34
5527 13.0540 73.44 75.58 7.79
5528 13.0560 70.46 75.64 7.70
5529 13.0580 72.60 75.69 7.81
5530 13.0600 85.18 75.75 8.41
5531 13.0620 74.62 75.82 7.86
5532 13.0640 96.35 75.89 8.96
5533 13.0660 85.41 75.96 8.44
5534 13.0680 79.03 76.04 8.09
5535 13.0700 68.22 76.13 7.52
5536 13.0720 67.45 76.22 7.47
5537 13.0740 64.33 76.32 7.32
5538 13.0760 71.65 76.42 7.70
5539 13.0780 88.02 76.54 8.54
5540 13.0800 69.16 76.67 7.57
5541 13.0820 67.33 76.80 7.43
5542 13.0840 76.59 76.95 7.98
5543 13.0860 74.25 77.11 7.85
5544 13.0880 73.65 77.29 7.83
5545 13.0900 70.31 77.49 7.65
5546 13.0920 73.48 77.71 7.81
5547 13.0940 78.94 77.95 8.07
5548 13.0960 67.76 78.21 7.49
5549 13.0980 84.19 78.51 8.35
5550 13.1000 87.00 78.84 8.46
5551 13.1020 76.84 79.21 8.02
5552 13.1040 78.67 79.64 8.09
5553 13.1060 79.70 80.11 8.14
5554 13.1080 88.33 80.66 8.57
5555 13.1100 80.46 81.28 8.15
5556 13.1120 76.83 82.00 7.95
5557 13.1140 89.54 82.84 8.63
5558 13.1160 84.17 83.82 8.36
5559 13.1180 83.11 84.98 8.28
5560 13.1200 91.31 86.36 8.74
5561 13.1220 98.69 88.03 9.06
5562 13.1240 95.21 90.06 8.92
5563 13.1260 100.49 92.58 9.13
5564 13.1280 117.28 95.74 9.86
5565 13.1300 103.18 99.79 9.25
5566 13.1320 106.06 105.07 9.37
5567 13.1340 114.82 112.13 9.76
5568 13.1360 127.21 121.93 10.29
5569 13.1380 138.51 136.23 10.71
5570 13.1400 129.53 158.63 10.37
5571 13.1420 160.75 196.01 11.52
5572 13.1440 205.54 259.54 12.99
5573 13.1460 249.18 362.58 14.26
5574 13.1480 343.99 508.06 16.71
5575 13.1500 521.69 645.98 20.56
5576 13.1520 656.80 652.53 23.18
5577 13.1540 654.57 519.93 23.39
5578 13.1560 544.00 372.13 21.44
5579 13.1580 397.74 265.75 18.27
5580 13.1600 254.28 199.71 14.58
5581 13.1620 189.37 160.80 12.56
5582 13.1640 144.53 137.57 11.01
5583 13.1660 123.99 122.81 10.16
5584 13.1680 108.66 112.75 9.54
5585 13.1700 104.34 105.51 9.34
5586 13.1720 99.47 100.12 9.10
5587 13.1740 92.54 96.00 8.79
5588 13.1760 84.71 92.78 8.39
5589 13.1780 92.89 90.22 8.78
5590 13.1800 90.89 88.15 8.70
5591 13.1820 84.42 86.46 8.39
5592 13.1840 87.27 85.06 8.54
5593 13.1860 81.40 83.88 8.25
5594 13.1880 76.94 82.89 8.01
5595 13.1900 71.57 82.04 7.71
5596 13.1920 63.85 81.31 7.28
5597 13.1940 87.88 80.68 8.53
5598 13.1960 88.08 80.13 8.55
5599 13.1980 76.58 79.64 8.01
5600 13.2000 77.53 79.22 8.04
5601 13.2020 84.07 78.84 8.36
5602 13.2040 74.89 78.51 7.89
5603 13.2060 74.27 78.20 7.82
5604 13.2080 73.11 77.94 7.81
5605 13.2100 71.08 77.69 7.70
5606 13.2120 79.75 77.47 8.13
5607 13.2140 84.48 77.27 8.40
5608 13.2160 74.09 77.09 7.87
5609 13.2180 77.97 76.93 8.09
5610 13.2200 73.16 76.78 7.83
5611 13.2220 75.37 76.64 7.90
5612 13.2240 71.85 76.51 7.69
5613 13.2260 79.48 76.44 8.15
5614 13.2280 74.60 76.33 7.91
5615 13.2300 80.51 76.23 8.19
5616 13.2320 73.39 76.14 7.84
5617 13.2340 72.77 76.05 7.81
5618 13.2360 74.34 75.97 7.89
5619 13.2380 68.79 75.90 7.57
5620 13.2400 72.61 75.83 7.75
5621 13.2420 72.57 75.76 7.74
5622 13.2440 74.02 75.70 7.82
5623 13.2460 77.33 75.64 8.07
5624 13.2480 70.92 75.59 7.71
5625 13.2500 74.09 75.54 7.86
5626 13.2520 71.90 75.49 7.76
5627 13.2540 83.54 75.45 8.34
5628 13.2560 82.11 75.41 8.26
5629 13.2580 73.90 75.37 7.82
5630 13.2600 64.68 75.33 7.34
5631 13.2620 72.06 75.30 7.75
5632 13.2640 84.65 75.27 8.39
5633 13.2660 70.54 75.24 7.68
5634 13.2680 72.80 75.21 7.78
5635 13.2700 83.72 75.18 8.35
5636 13.2720 71.23 75.16 7.73
5637 13.2740 69.87 75.13 7.63
5638 13.2760 77.45 75.11 8.05
5639 13.2780 76.20 75.09 7.98
5640 13.2800 76.57 75.07 7.97
5641 13.2820 90.83 75.05 8.70
5642 13.2840 87.71 75.03 8.57
5643 13.2860 85.50 75.01 8.41
5644 13.2880 81.44 74.99 8.24
5645 13.2900 86.78 74.98 8.49
5646 13.2920 79.10 74.96 8.09
5647 13.2940 88.82 74.95 8.63
5648 13.2960 79.69 74.93 8.15
5649 13.2980 84.41 74.92 8.35
5650 13.3000 73.00 74.91 7.82
5651 13.3020 77.38 74.90 8.01
5652 13.3040 79.90 74.89 8.12
5653 13.3060 65.32 74.88 7.36
5654 13.3080 72.04 74.87 7.71
5655 13.3100 76.14 74.86 7.96
5656 13.3120 87.88 74.86 8.54
5657 13.3140 84.93 74.85 8.41
5658 13.3160 82.76 74.84 8.29
5659 13.3180 80.21 74.84 8.18
5660 13.3200 82.03 74.83 8.24
5661 13.3220 78.14 74.83 8.05
5662 13.3240 79.03 74.83 8.12
5663 13.3260 78.22 74.82 8.05
5664 13.3280 76.00 74.82 7.97
5665 13.3300 75.14 74.82 7.94
5666 13.3320 82.41 74.82 8.29
5667 13.3340 65.60 74.82 7.42
5668 13.3360 77.31 74.83 8.01
5669 13.3380 71.61 74.83 7.72
5670 13.3400 69.26 74.83 7.58
5671 13.3420 63.21 74.84 7.22
5672 13.3440 70.65 74.84 7.64
5673 13.3460 70.62 74.85 7.66
5674 13.3480 81.24 74.55 8.19
5675 13.3500 67.92 74.57 7.51
5676 13.3520 76.85 74.58 8.00
5677 13.3540 62.78 74.60 7.23
5678 13.3560 65.51 74.62 7.37
5679 13.3580 64.69 74.65 7.32
5680 13.3600 62.50 74.67 7.17
5681 13.3620 67.02 74.70 7.45
5682 13.3640 83.90 74.73 8.36
5683 13.3660 68.45 74.76 7.56
5684 13.3680 81.37 74.80 8.19
5685 13.3700 76.56 74.84 7.96
5686 13.3720 80.12 74.88 8.15
5687 13.3740 72.48 74.94 7.73
5688 13.3760 80.35 74.99 8.18
5689 13.3780 68.14 75.06 7.53
5690 13.3800 76.97 75.13 7.96
5691 13.3820 70.78 75.21 7.65
5692 13.3840 70.88 75.31 7.68
5693 13.3860 79.94 75.42 8.16
5694 13.3880 74.08 75.55 7.84
5695 13.3900 67.71 75.70 7.49
5696 13.3920 71.71 75.87 7.71
5697 13.3940 75.04 76.09 7.88
5698 13.3960 74.66 76.34 7.88
5699 13.3980 77.53 76.65 8.02
5700 13.4000 78.37 77.03 8.07
5701 13.4020 65.33 77.51 7.38
5702 13.4040 74.67 78.12 7.86
5703 13.4060 84.44 78.92 8.35
5704 13.4080 93.76 79.99 8.84
5705 13.4100 87.53 81.46 8.56
5706 13.4120 73.58 83.62 7.83
5707 13.4140 69.09 87.00 7.57
5708 13.4160 82.05 92.62 8.22
5709 13.4180 100.51 102.09 9.11
5710 13.4200 111.31 117.24 9.59
5711 13.4220 117.24 138.35 9.81
5712 13.4240 145.73 158.38 10.99
5713 13.4260 184.97 160.09 12.37
5714 13.4280 166.93 141.53 11.81
5715 13.4300 151.36 119.90 11.24
5716 13.4320 125.55 103.91 10.23
5717 13.4340 111.64 93.80 9.62
5718 13.4360 96.02 87.81 8.85
5719 13.4380 64.83 84.25 7.34
5720 13.4400 84.18 82.03 8.37
5721 13.4420 80.72 80.59 8.20
5722 13.4440 88.13 79.58 8.55
5723 13.4460 86.25 78.88 8.45
5724 13.4480 92.39 78.41 8.78
5725 13.4500 90.96 78.16 8.75
5726 13.4520 77.15 78.12 8.07
5727 13.4540 72.36 78.37 7.79
5728 13.4560 77.26 79.07 8.01
5729 13.4580 79.17 80.45 8.13
5730 13.4600 83.91 82.74 8.37
5731 13.4620 73.75 85.75 7.83
5732 13.4640 97.37 87.92 8.97
5733 13.4660 85.79 86.94 8.48
5734 13.4680 92.54 83.80 8.80
5735 13.4700 92.89 80.81 8.83
5736 13.4720 91.61 78.73 8.74
5737 13.4740 70.76 77.42 7.68
5738 13.4760 70.29 76.63 7.63
5739 13.4780 78.46 76.13 8.06
5740 13.4800 71.31 75.80 7.72
5741 13.4820 68.51 75.55 7.53
5742 13.4840 93.17 75.37 8.79
5743 13.4860 90.25 75.23 8.68
5744 13.4880 93.11 75.12 8.81
5745 13.4900 83.06 75.05 8.30
5746 13.4920 75.68 74.97 7.93
5747 13.4940 68.53 74.90 7.55
5748 13.4960 84.31 74.85 8.37
5749 13.4980 68.03 74.80 7.54
5750 13.5000 76.52 74.76 8.04
5751 13.5020 83.64 74.72 8.38
5752 13.5040 78.70 74.69 8.11
5753 13.5060 71.96 74.66 7.74
5754 13.5080 62.31 74.64 7.22
5755 13.5100 70.14 74.62 7.65
5756 13.5120 92.32 74.60 8.77
5757 13.5140 85.74 74.58 8.43
5758 13.5160 79.04 74.56 8.10
5759 13.5180 76.33 74.55 7.97
5760 13.5200 69.50 74.53 7.59
5761 13.5220 64.82 74.52 7.32
5762 13.5240 66.68 74.51 7.45
5763 13.5260 62.88 74.50 7.20
5764 13.5280 77.71 74.52 8.03
5765 13.5300 74.03 74.52 7.86
5766 13.5320 71.91 74.51 7.72
5767 13.5340 77.23 74.51 8.05
5768 13.5360 75.38 74.50 7.91
5769 13.5380 64.82 74.50 7.32
5770 13.5400 74.85 74.50 7.88
5771 13.5420 83.44 74.49 8.31
5772 13.5440 81.47 74.49 8.26
5773 13.5460 72.88 74.49 7.82
5774 13.5480 68.60 74.49 7.59
5775 13.5500 82.17 74.49 8.30
5776 13.5520 78.39 74.50 8.12
5777 13.5540 74.76 74.50 7.89
5778 13.5560 71.88 74.50 7.72
5779 13.5580 82.95 74.51 8.27
5780 13.5600 66.65 74.51 7.45
5781 13.5620 69.12 74.52 7.59
5782 13.5640 65.83 74.53 7.41
5783 13.5660 67.25 74.53 7.47
5784 13.5680 64.10 74.54 7.32
5785 13.5700 80.54 74.55 8.20
5786 13.5720 75.63 74.57 7.90
5787 13.5740 65.90 74.58 7.38
5788 13.5760 73.40 74.60 7.78
5789 13.5780 72.85 74.61 7.76
5790 13.5800 78.45 74.63 8.07
5791 13.5820 65.00 74.65 7.36
5792 13.5840 76.12 74.67 8.00
5793 13.5860 81.61 74.70 8.25
5794 13.5880 75.72 74.73 7.93
5795 13.5900 77.15 74.76 8.02
5796 13.5920 81.12 74.80 8.18
5797 13.5940 66.84 74.84 7.45
5798 13.5960 73.52 74.88 7.82
5799 13.5980 81.50 74.94 8.24
5800 13.6000 83.33 74.99 8.31
5801 13.6020 79.10 75.06 8.10
5802 13.6040 76.07 75.14 7.95
5803 13.6060 74.96 75.22 7.93
5804 13.6080 77.71 75.33 8.07
5805 13.6100 73.55 75.45 7.85
5806 13.6120 74.38 75.59 7.87
5807 13.6140 79.06 75.75 8.08
5808 13.6160 76.21 75.95 7.98
5809 13.6180 79.53 76.19 8.15
5810 13.6200 83.88 76.49 8.36
5811 13.6220 85.46 76.86 8.44
5812 13.6240 79.21 77.33 8.12
5813 13.6260 73.24 77.89 7.79
5814 13.6280 94.15 78.69 8.87
5815 13.6300 94.82 79.80 8.86
5816 13.6320 77.52 81.41 8.03
5817 13.6340 79.33 83.90 8.10
5818 13.6360 88.10 88.00 8.57
5819 13.6380 88.06 94.86 8.55
5820 13.6400 82.21 105.83 8.28
5821 13.6420 107.84 121.28 9.46
5822 13.6440 133.15 136.93 10.55
5823 13.6460 145.08 140.59 10.95
5824 13.6480 113.93 128.24 9.72
5825 13.6500 96.15 111.79 8.97
5826 13.6520 79.79 99.00 8.18
5827 13.6540 90.07 90.73 8.68
5828 13.6560 101.60 85.77 9.23
5829 13.6580 85.09 82.85 8.48
5830 13.6600 87.50 81.07 8.56
5831 13.6620 71.81 79.93 7.74
5832 13.6640 74.88 79.18 7.87
5833 13.6660 86.51 78.68 8.45
5834 13.6680 75.99 78.38 7.93
5835 13.6700 72.89 78.25 7.77
5836 13.6720 76.26 78.26 7.91
5837 13.6740 83.19 78.43 8.32
5838 13.6760 87.78 78.78 8.52
5839 13.6780 89.64 79.36 8.60
5840 13.6800 81.13 80.29 8.17
5841 13.6820 82.41 81.81 8.30
5842 13.6840 84.96 84.36 8.45
5843 13.6860 78.55 88.71 8.09
5844 13.6880 84.59 95.79 8.34
5845 13.6900 72.69 106.13 7.77
5846 13.6920 96.67 117.71 8.93
5847 13.6940 105.85 122.71 9.36
5848 13.6960 116.54 115.80 9.81
5849 13.6980 122.18 104.13 10.08
5850 13.7000 109.40 94.44 9.58
5851 13.7020 101.55 88.03 9.19
5852 13.7040 84.61 84.19 8.41
5853 13.7060 90.04 82.01 8.66
5854 13.7080 83.20 80.79 8.27
5855 13.7100 63.60 80.16 7.27
5856 13.7120 73.30 79.91 7.81
5857 13.7140 83.12 79.99 8.29
5858 13.7160 67.90 80.40 7.53
5859 13.7180 81.48 81.24 8.24
5860 13.7200 82.07 82.72 8.27
5861 13.7220 77.41 85.31 8.00
5862 13.7240 80.40 89.80 8.11
5863 13.7260 70.99 97.32 7.64
5864 13.7280 95.01 108.82 8.83
5865 13.7300 104.07 123.18 9.27
5866 13.7320 111.06 132.96 9.53
5867 13.7340 130.78 128.43 10.34
5868 13.7360 141.69 114.46 10.82
5869 13.7380 119.31 101.20 10.02
5870 13.7400 130.87 91.89 10.47
5871 13.7420 102.08 86.07 9.26
5872 13.7440 94.98 82.57 8.91
5873 13.7460 88.47 80.43 8.59
5874 13.7480 86.87 79.04 8.52
5875 13.7500 88.29 78.07 8.61
5876 13.7520 83.44 77.36 8.34
5877 13.7540 93.37 76.82 8.80
5878 13.7560 74.18 76.41 7.88
5879 13.7580 79.06 76.07 8.12
5880 13.7600 75.01 75.80 7.91
5881 13.7620 75.18 75.58 7.94
5882 13.7640 80.45 75.40 8.21
5883 13.7660 85.53 75.24 8.43
5884 13.7680 85.88 75.11 8.44
5885 13.7700 86.82 74.99 8.52
5886 13.7720 90.89 74.90 8.65
5887 13.7740 77.68 74.81 8.01
5888 13.7760 76.85 74.73 8.02
5889 13.7780 94.11 74.70 8.84
5890 13.7800 71.46 74.64 7.72
5891 13.7820 74.71 74.59 7.84
5892 13.7840 60.79 74.54 7.14
5893 13.7860 74.79 74.50 7.87
5894 13.7880 65.10 74.46 7.34
5895 13.7900 66.37 74.42 7.41
5896 13.7920 89.82 74.39 8.68
5897 13.7940 90.51 74.36 8.67
5898 13.7960 82.86 74.33 8.27
5899 13.7980 84.13 74.30 8.41
5900 13.8000 82.24 74.28 8.27
5901 13.8020 82.78 74.26 8.28
5902 13.8040 74.66 74.24 7.88
5903 13.8060 73.41 74.22 7.80
5904 13.8080 79.86 74.20 8.16
5905 13.8100 83.29 74.18 8.34
5906 13.8120 72.35 74.17 7.77
5907 13.8140 78.18 74.15 8.08
5908 13.8160 74.14 74.14 7.86
5909 13.8180 78.28 74.12 8.10
5910 13.8200 76.79 74.11 8.01
5911 13.8220 71.78 74.10 7.72
5912 13.8240 78.91 74.09 8.11
5913 13.8260 84.32 74.08 8.41
5914 13.8280 91.17 74.07 8.71
5915 13.8300 78.70 74.06 8.08
5916 13.8320 83.19 74.05 8.27
5917 13.8340 73.07 74.04 7.76
5918 13.8360 86.45 74.03 8.42
5919 13.8380 78.49 74.02 8.09
5920 13.8400 83.38 74.02 8.33
5921 13.8420 86.24 74.01 8.47
5922 13.8440 88.09 74.00 8.55
5923 13.8460 80.90 74.00 8.20
5924 13.8480 80.50 73.99 8.20
5925 13.8500 82.57 73.95 8.28
5926 13.8520 82.52 73.94 8.26
5927 13.8540 63.68 73.94 7.29
5928 13.8560 67.59 73.94 7.49
5929 13.8580 67.92 73.93 7.53
5930 13.8600 81.12 73.93 8.23
5931 13.8620 76.15 73.92 7.98
5932 13.8640 80.80 73.92 8.19
5933 13.8660 69.92 73.92 7.65
5934 13.8680 81.15 73.92 8.22
5935 13.8700 83.98 73.91 8.37
5936 13.8720 79.33 73.91 8.16
5937 13.8740 79.77 73.91 8.20
5938 13.8760 81.89 73.91 8.27
5939 13.8780 77.88 73.91 8.08
5940 13.8800 76.79 73.91 8.01
5941 13.8820 74.83 73.90 7.90
5942 13.8840 72.72 73.90 7.77
5943 13.8860 91.38 73.90 8.74
5944 13.8880 90.57 73.91 8.67
5945 13.8900 77.25 73.91 8.05
5946 13.8920 87.03 73.91 8.52
5947 13.8940 93.34 73.91 8.80
5948 13.8960 73.07 73.91 7.82
5949 13.8980 79.58 73.92 8.14
5950 13.9000 83.56 73.90 8.36
5951 13.9020 88.32 73.90 8.56
5952 13.9040 94.18 73.91 8.80
5953 13.9060 73.71 73.91 7.79
5954 13.9080 84.41 73.92 8.38
5955 13.9100 83.81 73.93 8.35
5956 13.9120 80.02 73.94 8.16
5957 13.9140 84.41 73.95 8.38
5958 13.9160 81.18 73.96 8.22
5959 13.9180 83.08 73.97 8.30
5960 13.9200 74.75 73.99 7.87
5961 13.9220 64.67 74.00 7.33
5962 13.9240 76.49 74.02 7.98
5963 13.9260 74.02 74.04 7.85
5964 13.9280 83.82 74.07 8.34
5965 13.9300 76.31 74.09 7.97
5966 13.9320 75.43 74.12 7.92
5967 13.9340 67.40 74.16 7.51
5968 13.9360 71.83 74.19 7.73
5969 13.9380 59.08 74.21 7.02
5970 13.9400 75.28 74.26 7.89
5971 13.9420 72.65 74.32 7.78
5972 13.9440 67.53 74.38 7.51
5973 13.9460 77.49 74.46 8.02
5974 13.9480 74.66 74.55 7.89
5975 13.9500 70.74 74.66 7.66
5976 13.9520 85.10 74.79 8.41
5977 13.9540 84.77 74.94 8.42
5978 13.9560 90.64 75.12 8.68
5979 13.9580 72.49 75.46 7.78
5980 13.9600 87.78 75.74 8.52
5981 13.9620 76.01 76.08 7.98
5982 13.9640 85.07 76.51 8.43
5983 13.9660 85.97 77.07 8.48
5984 13.9680 89.04 77.82 8.60
5985 13.9700 85.35 78.84 8.40
5986 13.9720 87.46 80.31 8.54
5987 13.9740 86.93 82.57 8.49
5988 13.9760 90.69 86.27 8.71
5989 13.9780 87.79 92.42 8.57
5990 13.9800 101.01 102.25 9.18
5991 13.9820 115.40 116.34 9.82
5992 13.9840 131.96 131.86 10.51
5993 13.9860 163.62 138.68 11.69
5994 13.9880 151.49 129.71 11.19
5995 13.9900 113.89 113.94 9.73
5996 13.9920 94.45 100.46 8.84
5997 13.9940 87.59 91.27 8.50
5998 13.9960 82.53 85.57 8.24
5999 13.9980 93.42 82.15 12.09
6000 14.0000 77.93 80.04 8.29
6001 14.0020 86.98 78.65 8.80
6002 14.0040 74.96 77.82 8.18
6003 14.0060 75.38 77.11 8.15
6004 14.0080 80.04 76.57 8.44
6005 14.0100 80.41 76.15 8.47
6006 14.0120 74.53 75.83 8.12
6007 14.0140 80.21 75.56 8.38
6008 14.0160 84.11 75.35 8.57
6009 14.0180 70.88 75.18 7.90
6010 14.0200 74.18 75.03 8.14
6011 14.0220 68.91 74.91 7.84
6012 14.0240 79.67 74.81 8.34
6013 14.0260 74.29 74.72 8.10
6014 14.0280 86.28 74.65 8.77
6015 14.0300 82.05 74.59 8.48
6016 14.0320 80.07 74.61 8.40
6017 14.0340 84.42 74.57 8.66
6018 14.0360 81.72 74.53 8.50
6019 14.0380 96.35 74.50 9.20
6020 14.0400 95.97 74.48 9.18
6021 14.0420 87.93 74.45 8.80
6022 14.0440 85.43 74.44 8.67
6023 14.0460 86.99 74.42 8.66
6024 14.0480 70.78 74.41 7.90
6025 14.0500 86.69 74.41 8.71
6026 14.0520 82.16 74.40 8.54
6027 14.0540 75.24 74.40 8.11
6028 14.0560 81.83 74.40 8.40
6029 14.0580 72.19 74.40 8.06
6030 14.0600 71.68 74.41 7.96
6031 14.0620 72.12 74.42 7.95
6032 14.0640 80.99 74.43 8.41
6033 14.0660 78.04 74.44 8.26
6034 14.0680 72.19 74.46 7.98
6035 14.0700 72.55 74.47 8.03
6036 14.0720 81.88 74.49 8.47
6037 14.0740 67.04 74.51 7.70
6038 14.0760 87.16 74.54 8.71
6039 14.0780 80.07 74.57 8.38
6040 14.0800 75.59 74.60 8.17
6041 14.0820 81.83 74.63 8.54
6042 14.0840 71.84 74.67 8.04
6043 14.0860 71.72 74.71 7.97
6044 14.0880 83.26 74.75 8.53
6045 14.0900 90.76 74.80 8.89
6046 14.0920 71.92 74.85 7.99
6047 14.0940 87.14 74.90 8.74
6048 14.0960 85.86 74.97 8.76
6049 14.0980 92.83 75.03 9.06
6050 14.1000 70.53 75.10 7.92
6051 14.1020 64.47 75.18 7.58
6052 14.1040 73.89 75.27 8.07
6053 14.1060 77.92 75.37 8.25
6054 14.1080 82.99 75.47 8.52
6055 14.1100 83.02 75.58 8.62
6056 14.1120 77.85 75.71 8.33
6057 14.1140 71.88 75.85 8.03
6058 14.1160 72.89 76.00 8.07
6059 14.1180 65.54 76.18 7.65
6060 14.1200 72.57 76.37 7.99
6061 14.1220 69.62 76.58 7.89
6062 14.1240 77.05 76.82 8.28
6063 14.1260 75.02 77.10 8.10
6064 14.1280 60.63 77.41 7.34
6065 14.1300 77.77 77.76 8.32
6066 14.1320 77.71 78.17 8.30
6067 14.1340 78.46 78.65 8.32
6068 14.1360 82.35 79.20 8.55
6069 14.1380 83.22 79.86 8.63
6070 14.1400 96.20 80.64 9.23
6071 14.1420 86.00 81.58 8.76
6072 14.1440 75.85 82.73 8.18
6073 14.1460 91.01 84.15 8.86
6074 14.1480 85.01 85.95 8.70
6075 14.1500 84.81 88.26 8.68
6076 14.1520 85.98 91.31 8.68
6077 14.1540 110.70 95.50 9.82
6078 14.1560 99.94 101.55 9.42
6079 14.1580 104.99 110.92 9.61
6080 14.1600 125.49 126.23 10.49
6081 14.1620 131.71 151.38 10.80
6082 14.1640 175.97 190.70 12.43
6083 14.1660 249.29 245.12 14.77
6084 14.1680 340.34 300.64 17.32
6085 14.1700 393.07 317.92 18.63
6086 14.1720 318.40 279.19 16.70
6087 14.1740 207.01 221.21 13.54
6088 14.1760 162.43 173.46 11.99
6089 14.1780 136.84 141.31 11.00
6090 14.1800 134.49 121.61 10.83
6091 14.1820 116.65 109.99 10.11
6092 14.1840 114.02 103.09 9.98
6093 14.1860 97.13 98.89 9.31
6094 14.1880 97.60 96.34 9.29
6095 14.1900 91.02 94.91 8.99
6096 14.1920 98.09 94.39 9.25
6097 14.1940 96.39 94.68 9.17
6098 14.1960 100.31 95.76 9.41
6099 14.1980 104.89 97.84 9.65
6100 14.2000 115.83 101.17 10.13
6101 14.2020 128.43 106.37 10.66
6102 14.2040 122.34 114.71 10.44
6103 14.2060 137.35 128.54 11.00
6104 14.2080 180.19 151.67 12.76
6105 14.2100 249.43 188.87 15.12
6106 14.2120 316.00 243.08 17.01
6107 14.2140 328.58 306.46 17.24
6108 14.2160 325.43 344.11 16.84
6109 14.2180 329.51 319.80 16.70
6110 14.2200 271.77 258.89 15.08
6111 14.2220 197.27 202.15 12.88
6112 14.2240 137.16 162.35 10.90
6113 14.2260 142.20 137.93 11.10
6114 14.2280 144.59 124.41 11.28
6115 14.2300 128.78 118.04 10.62
6116 14.2320 121.22 116.89 10.30
6117 14.2340 128.32 120.91 10.74
6118 14.2360 160.13 131.60 12.06
6119 14.2380 194.66 151.32 13.39
6120 14.2400 187.12 181.43 13.02
6121 14.2420 175.32 216.75 12.40
6122 14.2440 173.96 236.15 12.21
6123 14.2460 194.04 219.42 12.74
6124 14.2480 185.18 182.45 12.41
6125 14.2500 148.37 148.39 11.19
6126 14.2520 121.79 124.17 10.20
6127 14.2540 108.90 108.69 9.71
6128 14.2560 92.62 99.17 9.00
6129 14.2580 89.09 93.22 8.80
6130 14.2600 104.99 89.28 9.60
6131 14.2620 92.98 86.49 9.08
6132 14.2640 86.82 84.41 8.73
6133 14.2660 85.06 82.80 8.68
6134 14.2680 91.25 81.53 8.98
6135 14.2700 83.10 80.50 8.59
6136 14.2720 82.13 79.66 8.51
6137 14.2740 82.48 78.96 8.55
6138 14.2760 88.66 78.36 8.94
6139 14.2780 90.88 77.86 8.94
6140 14.2800 81.11 77.42 8.41
6141 14.2820 82.02 77.05 8.51
6142 14.2840 72.41 76.72 8.00
6143 14.2860 65.72 76.42 7.58
6144 14.2880 62.35 76.17 7.44
6145 14.2900 67.19 75.93 7.70
6146 14.2920 76.10 75.73 8.17
6147 14.2940 81.63 75.54 8.43
6148 14.2960 70.54 75.37 7.89
6149 14.2980 91.88 75.22 8.95
6150 14.3000 80.69 75.08 8.45
6151 14.3020 79.83 74.95 8.35
6152 14.3040 78.19 74.83 8.29
6153 14.3060 76.71 74.72 8.24
6154 14.3080 66.83 74.62 7.70
6155 14.3100 70.37 74.53 7.83
6156 14.3120 71.07 74.44 7.86
6157 14.3140 71.59 74.36 7.95
6158 14.3160 90.45 74.28 8.94
6159 14.3180 71.35 74.21 7.98
6160 14.3200 77.02 74.15 8.25
6161 14.3220 71.37 74.08 7.95
6162 14.3240 56.79 74.02 7.11
6163 14.3260 68.05 73.97 7.76
6164 14.3280 66.67 73.92 7.71
6165 14.3300 73.10 73.87 8.03
6166 14.3320 78.46 73.82 8.37
6167 14.3340 66.79 73.77 7.73
6168 14.3360 65.07 73.73 7.60
6169 14.3380 69.49 73.69 7.79
6170 14.3400 71.04 73.65 7.87
6171 14.3420 71.38 73.62 7.93
6172 14.3440 79.86 73.58 8.38
6173 14.3460 78.09 73.55 8.31
6174 14.3480 73.89 73.51 8.09
6175 14.3500 81.15 73.48 8.48
6176 14.3520 74.19 73.45 8.11
6177 14.3540 69.56 73.43 7.84
6178 14.3560 63.02 73.40 7.37
6179 14.3580 67.39 73.37 7.58
6180 14.3600 81.70 73.35 8.46
6181 14.3620 65.28 73.32 7.55
6182 14.3640 63.97 73.30 7.47
6183 14.3660 75.23 73.27 8.18
6184 14.3680 75.79 73.25 8.18
6185 14.3700 72.60 73.23 8.02
6186 14.3720 61.26 73.21 7.34
6187 14.3740 70.53 73.19 7.82
6188 14.3760 72.16 73.17 8.01
6189 14.3780 68.60 73.15 7.70
6190 14.3800 65.30 73.13 7.50
6191 14.3820 74.86 72.99 8.14
6192 14.3840 80.47 72.98 8.44
6193 14.3860 73.59 72.96 8.04
6194 14.3880 69.28 72.95 7.82
6195 14.3900 67.86 72.94 7.77
6196 14.3920 70.46 72.92 7.88
6197 14.3940 80.29 72.91 8.42
6198 14.3960 77.18 72.90 8.27
6199 14.3980 81.70 72.88 8.47
6200 14.4000 71.45 72.87 7.96
6201 14.4020 64.30 72.86 7.60
6202 14.4040 78.05 72.85 8.29
6203 14.4060 76.24 72.84 8.16
6204 14.4080 76.75 72.82 8.24
6205 14.4100 79.04 72.81 8.33
6206 14.4120 67.19 72.80 7.66
6207 14.4140 71.26 72.79 7.90
6208 14.4160 74.30 72.78 8.09
6209 14.4180 71.97 72.77 7.92
6210 14.4200 80.53 72.76 8.34
6211 14.4220 65.97 72.75 7.63
6212 14.4240 64.92 72.74 7.48
6213 14.4260 58.17 72.73 7.10
6214 14.4280 56.67 72.72 7.10
6215 14.4300 69.09 72.58 7.78
6216 14.4320 74.07 72.58 8.07
6217 14.4340 70.35 72.57 7.90
6218 14.4360 68.41 72.56 7.76
6219 14.4380 64.13 72.56 7.56
6220 14.4400 70.30 72.55 7.86
6221 14.4420 70.98 72.54 7.94
6222 14.4440 82.09 72.54 8.52
6223 14.4460 77.57 72.53 8.27
6224 14.4480 70.86 72.53 7.92
6225 14.4500 70.64 72.52 7.81
6226 14.4520 68.21 72.52 7.67
6227 14.4540 71.22 72.51 7.92
6228 14.4560 67.53 72.50 7.72
6229 14.4580 70.67 72.42 7.85
6230 14.4600 74.43 72.42 8.02
6231 14.4620 71.55 72.42 7.91
6232 14.4640 71.26 72.41 7.91
6233 14.4660 70.72 72.41 7.88
6234 14.4680 73.88 72.41 8.05
6235 14.4700 75.95 72.41 8.07
6236 14.4720 59.16 72.41 7.15
6237 14.4740 65.95 72.40 7.59
6238 14.4760 73.15 72.40 8.02
6239 14.4780 71.83 72.40 7.94
6240 14.4800 69.79 72.41 7.87
6241 14.4820 75.18 72.41 8.14
6242 14.4840 65.09 72.42 7.60
6243 14.4860 73.10 72.42 7.95
6244 14.4880 66.23 72.44 7.61
6245 14.4900 78.77 72.45 8.28
6246 14.4920 72.14 72.48 7.99
6247 14.4940 72.52 72.52 8.00
6248 14.4960 78.12 72.59 8.30
6249 14.4980 78.11 72.71 8.28
6250 14.5000 75.11 72.90 8.11
6251 14.5020 76.54 73.19 8.23
6252 14.5040 75.85 73.56 8.18
6253 14.5060 74.69 73.89 8.10
6254 14.5080 71.92 73.90 8.06
6255 14.5100 77.89 73.58 8.28
6256 14.5120 71.75 73.20 7.94
6257 14.5140 67.50 72.89 7.74
6258 14.5160 76.79 72.68 8.20
6259 14.5180 84.31 72.55 8.59
6260 14.5200 82.01 72.47 8.46
6261 14.5220 67.07 72.42 7.70
6262 14.5240 68.98 72.38 7.79
6263 14.5260 75.49 72.35 8.11
6264 14.5280 74.22 72.33 8.08
6265 14.5300 74.40 72.31 8.03
6266 14.5320 67.12 72.30 7.62
6267 14.5340 74.76 72.29 8.09
6268 14.5360 68.25 72.28 7.72
6269 14.5380 63.03 72.27 7.47
6270 14.5400 68.12 72.26 7.72
6271 14.5420 73.11 72.25 7.97
6272 14.5440 69.21 72.24 7.77
6273 14.5460 70.20 72.23 7.86
6274 14.5480 69.83 72.23 7.86
6275 14.5500 72.28 72.22 8.00
6276 14.5520 71.50 72.21 7.93
6277 14.5540 68.32 72.21 7.77
6278 14.5560 72.34 72.20 7.99
6279 14.5580 72.42 72.20 7.99
6280 14.5600 76.79 72.19 8.22
6281 14.5620 70.44 72.19 7.83
6282 14.5640 74.54 72.18 8.06
6283 14.5660 76.70 72.18 8.21
6284 14.5680 67.19 72.17 7.71
6285 14.5700 67.16 72.17 7.65
6286 14.5720 83.27 72.16 8.41
6287 14.5740 68.39 72.16 7.78
6288 14.5760 70.17 72.15 7.86
6289 14.5780 62.20 72.15 7.40
6290 14.5800 65.57 72.14 7.67
6291 14.5820 69.58 72.14 7.84
6292 14.5840 67.03 72.14 7.67
6293 14.5860 70.15 72.13 7.86
6294 14.5880 62.78 72.13 7.43
6295 14.5900 57.15 72.12 7.11
6296 14.5920 63.67 72.12 7.46
6297 14.5940 62.77 72.11 7.43
6298 14.5960 67.70 72.11 7.72
6299 14.5980 73.40 72.11 8.00
6300 14.6000 76.21 72.10 8.17
6301 14.6020 76.06 72.10 8.16
6302 14.6040 70.51 72.09 7.86
6303 14.6060 71.29 72.09 7.84
6304 14.6080 76.03 72.09 8.12
6305 14.6100 74.55 72.08 8.15
6306 14.6120 66.11 72.08 7.63
6307 14.6140 70.58 72.07 7.84
6308 14.6160 68.46 72.07 7.75
6309 14.6180 64.94 72.07 7.52
6310 14.6200 72.47 72.06 7.96
6311 14.6220 80.98 72.06 8.41
6312 14.6240 67.04 72.05 7.68
6313 14.6260 63.69 72.05 7.47
6314 14.6280 71.09 72.05 7.85
6315 14.6300 70.68 72.04 7.90
6316 14.6320 84.00 72.04 8.60
6317 14.6340 79.53 72.04 8.36
6318 14.6360 69.80 72.03 7.91
6319 14.6380 76.33 72.03 8.25
6320 14.6400 66.87 72.02 7.66
6321 14.6420 68.14 72.02 7.72
6322 14.6440 79.38 72.02 8.36
6323 14.6460 81.55 72.01 8.36
6324 14.6480 75.19 72.01 8.08
6325 14.6500 71.49 72.01 7.96
6326 14.6520 77.72 72.00 8.20
6327 14.6540 67.34 72.00 7.65
6328 14.6560 73.57 72.00 8.03
6329 14.6580 87.42 71.99 8.69
6330 14.6600 68.08 71.99 7.80
6331 14.6620 69.83 71.98 7.84
6332 14.6640 66.01 71.98 7.60
6333 14.6660 65.10 71.98 7.63
6334 14.6680 79.69 71.97 8.37
6335 14.6700 71.47 71.97 7.95
6336 14.6720 74.55 71.97 8.09
6337 14.6740 69.48 71.96 7.84
6338 14.6760 69.12 71.96 7.78
6339 14.6780 77.30 71.96 8.18
6340 14.6800 76.05 71.95 8.22
6341 14.6820 79.46 71.95 8.38
6342 14.6840 77.83 71.95 8.31
6343 14.6860 78.99 71.94 8.27
6344 14.6880 78.03 71.94 8.25
6345 14.6900 87.39 71.94 8.79
6346 14.6920 65.96 71.93 7.61
6347 14.6940 66.73 71.93 7.61
6348 14.6960 71.93 71.93 7.94
6349 14.6980 71.72 71.93 7.96
6350 14.7000 72.29 71.92 7.99
6351 14.7020 75.90 71.92 8.12
6352 14.7040 63.73 71.92 7.38
6353 14.7060 68.39 71.91 7.61
6354 14.7080 67.63 71.91 7.68
6355 14.7100 54.44 71.91 6.93
6356 14.7120 63.00 71.90 7.45
6357 14.7140 67.08 71.90 7.67
6358 14.7160 69.40 71.90 7.80
6359 14.7180 71.06 71.90 7.88
6360 14.7200 69.59 71.89 7.82
6361 14.7220 65.32 71.89 7.62
6362 14.7240 70.64 71.89 7.88
6363 14.7260 64.11 71.88 7.50
6364 14.7280 76.94 71.88 8.14
6365 14.7300 87.31 71.88 8.78
6366 14.7320 79.95 71.88 8.41
6367 14.7340 64.45 71.87 7.52
6368 14.7360 67.32 71.87 7.63
6369 14.7380 66.34 71.87 7.70
6370 14.7400 68.81 71.86 7.75
6371 14.7420 61.81 71.86 7.39
6372 14.7440 71.11 71.86 7.98
6373 14.7460 61.21 71.86 7.36
6374 14.7480 64.38 71.85 7.46
6375 14.7500 60.68 71.85 7.31
6376 14.7520 58.64 71.85 7.22
6377 14.7540 72.10 71.85 7.93
6378 14.7560 64.13 71.84 7.55
6379 14.7580 68.13 71.84 7.74
6380 14.7600 84.20 71.84 8.51
6381 14.7620 67.38 71.84 7.73
6382 14.7640 69.83 71.84 7.81
6383 14.7660 66.24 71.83 7.67
6384 14.7680 72.09 71.83 8.02
6385 14.7700 80.32 71.83 8.39
6386 14.7720 71.39 71.83 7.96
6387 14.7740 68.00 71.82 7.79
6388 14.7760 68.39 71.82 7.82
6389 14.7780 72.42 71.82 7.96
6390 14.7800 61.80 71.82 7.41
6391 14.7820 73.94 71.82 8.07
6392 14.7840 64.65 71.81 7.61
6393 14.7860 68.43 71.81 7.77
6394 14.7880 69.93 71.81 7.81
6395 14.7900 67.01 71.81 7.67
6396 14.7920 65.29 71.81 7.58
6397 14.7940 77.15 71.80 8.20
6398 14.7960 78.48 71.80 8.28
6399 14.7980 73.95 71.80 8.08
6400 14.8000 67.98 71.80 7.77
6401 14.8020 67.14 71.80 7.66
6402 14.8040 65.94 71.79 7.63
6403 14.8060 73.48 71.79 8.06
6404 14.8080 71.02 71.79 7.93
6405 14.8100 64.27 71.79 7.51
6406 14.8120 71.53 71.79 7.86
6407 14.8140 63.31 71.79 7.47
6408 14.8160 60.38 71.78 7.29
6409 14.8180 65.44 71.78 7.61
6410 14.8200 69.73 71.78 7.85
6411 14.8220 74.92 71.78 8.11
6412 14.8240 68.38 71.78 7.82
6413 14.8260 66.40 71.78 7.69
6414 14.8280 66.15 71.78 7.66
6415 14.8300 68.91 71.77 7.76
6416 14.8320 69.19 71.77 7.77
6417 14.8340 71.59 71.77 7.91
6418 14.8360 73.59 71.77 8.05
6419 14.8380 67.55 71.77 7.72
6420 14.8400 68.81 71.77 7.77
6421 14.8420 74.15 71.77 8.03
6422 14.8440 74.59 71.77 8.10
6423 14.8460 69.94 71.76 7.83
6424 14.8480 80.33 71.76 8.37
6425 14.8500 68.50 71.76 7.77
6426 14.8520 61.62 71.76 7.38
6427 14.8540 68.70 71.76 7.77
6428 14.8560 65.36 71.76 7.57
6429 14.8580 62.89 71.76 7.46
6430 14.8600 60.17 71.76 7.26
6431 14.8620 65.55 71.76 7.56
6432 14.8640 72.25 71.76 8.08
6433 14.8660 66.79 71.76 7.74
6434 14.8680 72.01 71.75 7.97
6435 14.8700 75.21 71.75 8.08
6436 14.8720 66.57 71.75 7.69
6437 14.8740 76.16 71.75 8.23
6438 14.8760 68.04 71.75 7.74
6439 14.8780 62.99 71.80 7.41
6440 14.8800 73.25 71.81 7.97
6441 14.8820 79.38 71.81 8.29
6442 14.8840 66.38 71.81 7.65
6443 14.8860 72.42 71.81 7.96
6444 14.8880 61.21 71.81 7.38
6445 14.8900 63.57 71.81 7.51
6446 14.8920 64.29 71.81 7.57
6447 14.8940 76.08 71.81 8.18
6448 14.8960 88.12 71.82 8.76
6449 14.8980 74.51 71.82 8.11
6450 14.9000 71.40 71.82 7.92
6451 14.9020 79.89 71.83 8.39
6452 14.9040 66.02 71.83 7.71
6453 14.9060 71.16 71.84 7.93
6454 14.9080 74.18 71.85 8.03
6455 14.9100 71.05 71.86 7.88
6456 14.9120 80.19 71.88 8.41
6457 14.9140 73.81 71.91 8.08
6458 14.9160 71.27 71.96 7.91
6459 14.9180 67.27 72.03 7.68
6460 14.9200 71.18 72.10 7.88
6461 14.9220 74.14 72.13 8.01
6462 14.9240 80.92 72.10 8.37
6463 14.9260 71.69 72.04 7.96
6464 14.9280 59.51 71.97 7.30
6465 14.9300 73.64 71.93 8.06
6466 14.9320 75.27 71.90 8.22
6467 14.9340 70.01 71.88 7.92
6468 14.9360 70.75 71.87 7.94
6469 14.9380 84.66 71.87 8.65
6470 14.9400 79.89 71.87 8.43
6471 14.9420 71.61 71.87 7.95
6472 14.9440 68.81 71.87 7.75
6473 14.9460 59.01 71.87 7.27
6474 14.9480 64.69 71.87 7.62
6475 14.9500 71.63 71.87 7.98
6476 14.9520 71.38 71.88 7.91
6477 14.9540 55.41 71.88 7.01
6478 14.9560 59.21 71.89 7.21
6479 14.9580 65.30 71.89 7.56
6480 14.9600 75.20 71.89 8.10
6481 14.9620 80.61 71.90 8.47
6482 14.9640 71.77 71.91 7.97
6483 14.9660 73.96 71.91 8.06
6484 14.9680 72.78 71.92 8.07
6485 14.9700 70.71 71.93 7.90
6486 14.9720 67.82 71.94 7.72
6487 14.9740 65.36 71.95 7.59
6488 14.9760 67.25 71.97 7.70
6489 14.9780 64.70 71.99 7.58
6490 14.9800 75.98 72.01 8.15
6491 14.9820 70.35 72.05 7.91
6492 14.9840 75.20 72.10 8.11
6493 14.9860 72.58 72.18 7.98
6494 14.9880 73.18 72.30 8.00
6495 14.9900 70.12 72.44 7.80
6496 14.9920 52.99 72.56 6.86
6497 14.9940 61.49 72.56 7.36
6498 14.9960 57.92 72.46 7.19
6499 14.9980 67.88 72.34 7.70
6500 15.0000 71.05 72.24 7.92
6501 15.0020 73.29 72.18 8.07
6502 15.0040 66.86 72.15 7.66
6503 15.0060 73.66 72.13 8.02
6504 15.0080 73.39 72.13 8.03
6505 15.0100 62.78 72.13 7.43
6506 15.0120 77.59 72.13 8.28
6507 15.0140 78.96 72.14 8.38
6508 15.0160 79.77 72.22 8.40
6509 15.0180 73.33 72.23 8.08
6510 15.0200 55.00 72.25 7.04
6511 15.0220 67.42 72.27 7.66
6512 15.0240 77.14 72.29 8.18
6513 15.0260 70.45 72.31 7.87
6514 15.0280 74.29 72.34 8.04
6515 15.0300 76.92 72.37 8.20
6516 15.0320 65.19 72.40 7.64
6517 15.0340 65.45 72.43 7.59
6518 15.0360 72.00 72.46 7.94
6519 15.0380 78.39 72.50 8.33
6520 15.0400 79.05 72.55 8.33
6521 15.0420 70.78 72.59 7.86
6522 15.0440 55.57 72.64 7.04
6523 15.0460 67.03 72.70 7.70
6524 15.0480 65.02 72.76 7.64
6525 15.0500 75.29 72.83 8.20
6526 15.0520 84.03 72.91 8.57
6527 15.0540 71.13 72.99 7.90
6528 15.0560 67.67 73.09 7.72
6529 15.0580 73.17 73.20 8.02
6530 15.0600 73.28 73.32 8.02
6531 15.0620 68.15 73.46 7.74
6532 15.0640 67.41 73.62 7.71
6533 15.0660 69.22 73.81 7.81
6534 15.0680 75.64 74.02 8.26
6535 15.0700 73.12 74.28 8.13
6536 15.0720 64.34 74.58 7.54
6537 15.0740 73.47 74.94 8.01
6538 15.0760 82.78 75.38 8.46
6539 15.0780 72.70 75.92 7.94
6540 15.0800 70.98 76.59 7.97
6541 15.0820 80.33 77.44 8.43
6542 15.0840 74.85 78.55 8.15
6543 15.0860 82.90 80.02 8.51
6544 15.0880 69.90 82.09 7.83
6545 15.0900 76.85 85.15 8.13
6546 15.0920 86.08 89.96 8.68
6547 15.0940 95.63 97.73 9.15
6548 15.0960 84.26 110.08 8.62
6549 15.0980 114.87 128.35 9.94
6550 15.1000 126.39 151.86 10.46
6551 15.1020 193.43 173.35 12.97
6552 15.1040 203.89 177.61 13.34
6553 15.1060 156.85 160.60 11.71
6554 15.1080 124.55 136.46 10.53
6555 15.1100 122.17 116.02 10.35
6556 15.1120 94.78 101.66 9.14
6557 15.1140 91.64 92.44 9.00
6558 15.1160 85.89 86.73 8.73
6559 15.1180 83.15 83.17 8.55
6560 15.1200 84.53 80.82 8.64
6561 15.1220 92.81 79.18 8.98
6562 15.1240 69.72 77.98 7.87
6563 15.1260 81.29 77.06 8.43
6564 15.1280 80.27 76.35 8.37
6565 15.1300 65.37 75.79 7.59
6566 15.1320 70.37 75.33 7.81
6567 15.1340 75.74 74.96 8.15
6568 15.1360 81.75 74.66 8.50
6569 15.1380 77.72 74.41 8.27
6570 15.1400 62.69 74.20 7.43
6571 15.1420 69.33 74.03 7.80
6572 15.1440 80.55 73.88 8.44
6573 15.1460 74.67 73.75 8.16
6574 15.1480 70.93 73.65 8.00
6575 15.1500 72.32 73.56 8.03
6576 15.1520 70.58 73.48 7.87
6577 15.1540 59.90 73.42 7.29
6578 15.1560 75.11 73.36 8.06
6579 15.1580 78.45 73.32 8.34
6580 15.1600 85.88 73.28 8.73
6581 15.1620 81.70 73.26 8.46
6582 15.1640 71.49 73.24 7.93
6583 15.1660 71.04 73.22 7.91
6584 15.1680 64.67 73.21 7.58
6585 15.1700 66.01 73.21 7.62
6586 15.1720 64.21 73.21 7.50
6587 15.1740 62.38 73.22 7.38
6588 15.1760 60.43 73.24 7.29
6589 15.1780 69.55 73.26 7.78
6590 15.1800 66.43 73.28 7.64
6591 15.1820 65.78 73.32 7.61
6592 15.1840 68.28 73.36 7.71
6593 15.1860 73.43 73.40 8.00
6594 15.1880 72.35 73.46 8.03
6595 15.1900 73.59 73.52 8.14
6596 15.1920 70.91 73.60 7.90
6597 15.1940 64.12 73.68 7.52
6598 15.1960 75.00 73.78 8.22
6599 15.1980 79.12 73.89 8.43
6600 15.2000 73.41 74.02 8.08
6601 15.2020 75.51 74.17 8.18
6602 15.2040 85.42 74.35 8.72
6603 15.2060 77.76 74.55 8.32
6604 15.2080 67.68 74.80 7.77
6605 15.2100 87.56 75.08 8.81
6606 15.2120 94.18 75.42 9.17
6607 15.2140 76.54 75.83 8.16
6608 15.2160 82.18 76.34 8.40
6609 15.2180 104.09 76.96 9.59
6610 15.2200 91.80 77.73 9.05
6611 15.2220 81.74 78.71 8.53
6612 15.2240 72.44 79.99 8.00
6613 15.2260 82.82 81.71 8.52
6614 15.2280 86.90 84.13 8.78
6615 15.2300 89.32 87.74 8.90
6616 15.2320 100.56 93.44 9.54
6617 15.2340 101.63 102.62 9.65
6618 15.2360 140.71 117.08 11.28
6619 15.2380 177.60 138.19 12.87
6620 15.2400 176.23 164.79 12.78
6621 15.2420 183.09 187.99 12.91
6622 15.2440 196.49 191.00 13.16
6623 15.2460 199.95 170.97 13.16
6624 15.2480 193.69 143.96 12.86
6625 15.2500 146.88 121.31 11.20
6626 15.2520 119.65 105.43 10.13
6627 15.2540 112.23 95.20 9.82
6628 15.2560 93.18 88.86 9.05
6629 15.2580 89.43 84.87 8.87
6630 15.2600 77.49 82.24 8.26
6631 15.2620 75.18 80.40 8.12
6632 15.2640 75.60 79.04 8.25
6633 15.2660 85.35 78.00 8.72
6634 15.2680 80.08 77.19 8.42
6635 15.2700 79.85 76.54 8.40
6636 15.2720 82.48 76.02 8.60
6637 15.2740 97.14 75.60 9.30
6638 15.2760 83.18 75.24 8.57
6639 15.2780 72.74 74.95 8.04
6640 15.2800 77.25 74.70 8.27
6641 15.2820 71.96 74.49 7.97
6642 15.2840 90.13 74.31 8.90
6643 15.2860 83.89 74.15 8.62
6644 15.2880 79.32 74.02 8.38
6645 15.2900 75.62 73.90 8.18
6646 15.2920 71.09 73.80 7.86
6647 15.2940 69.07 73.71 7.77
6648 15.2960 74.59 73.63 8.10
6649 15.2980 79.03 73.56 8.35
6650 15.3000 84.43 73.50 8.64
6651 15.3020 73.65 73.44 8.03
6652 15.3040 69.50 73.39 7.75
6653 15.3060 64.84 73.35 7.55
6654 15.3080 73.74 73.31 8.06
6655 15.3100 80.03 73.28 8.37
6656 15.3120 74.99 73.25 8.12
6657 15.3140 78.31 73.22 8.32
6658 15.3160 71.74 73.19 7.99
6659 15.3180 66.18 73.17 7.68
6660 15.3200 64.49 73.15 7.58
6661 15.3220 79.76 73.13 8.39
6662 15.3240 81.90 73.12 8.54
6663 15.3260 80.91 73.10 8.44
6664 15.3280 65.76 73.09 7.67
6665 15.3300 65.18 73.03 7.58
6666 15.3320 73.54 73.02 8.03
6667 15.3340 72.80 73.01 8.05
6668 15.3360 74.98 73.01 8.16
6669 15.3380 66.46 73.00 7.71
6670 15.3400 75.74 73.00 8.15
6671 15.3420 78.11 73.00 8.29
6672 15.3440 77.17 72.99 8.26
6673 15.3460 79.65 72.99 8.31
6674 15.3480 73.39 73.06 8.02
6675 15.3500 76.76 73.06 8.15
6676 15.3520 69.69 73.06 7.78
6677 15.3540 70.30 73.06 7.85
6678 15.3560 71.51 73.06 7.93
6679 15.3580 69.86 73.07 7.91
6680 15.3600 81.42 73.07 8.44
6681 15.3620 75.89 73.08 8.17
6682 15.3640 79.18 73.08 8.36
6683 15.3660 61.34 73.09 7.42
6684 15.3680 73.06 73.09 8.03
6685 15.3700 73.10 73.10 7.95
6686 15.3720 66.95 73.11 7.59
6687 15.3740 73.44 73.11 8.07
6688 15.3760 73.04 73.12 7.96
6689 15.3780 71.21 73.13 7.83
6690 15.3800 70.48 73.14 7.86
6691 15.3820 71.94 73.15 7.93
6692 15.3840 75.44 73.16 8.17
6693 15.3860 77.85 73.17 8.31
6694 15.3880 75.26 73.18 8.19
6695 15.3900 75.19 73.19 8.17
6696 15.3920 69.39 73.20 7.83
6697 15.3940 83.02 73.21 8.55
6698 15.3960 81.84 73.23 8.45
6699 15.3980 57.78 73.24 7.15
6700 15.4000 66.91 73.25 7.64
6701 15.4020 79.68 73.27 8.34
6702 15.4040 66.53 73.29 7.67
6703 15.4060 68.79 73.32 7.76
6704 15.4080 64.86 73.34 7.54
6705 15.4100 75.76 73.36 8.12
6706 15.4120 83.67 73.39 8.60
6707 15.4140 76.44 73.41 8.23
6708 15.4160 76.07 73.44 8.14
6709 15.4180 78.71 73.47 8.29
6710 15.4200 75.89 73.50 8.17
6711 15.4220 67.40 73.54 7.64
6712 15.4240 70.33 73.59 7.82
6713 15.4260 82.92 73.65 8.56
6714 15.4280 84.39 73.72 8.60
6715 15.4300 72.83 73.81 8.02
6716 15.4320 85.42 73.93 8.64
6717 15.4340 71.74 74.12 8.02
6718 15.4360 73.75 74.40 8.07
6719 15.4380 79.73 74.85 8.37
6720 15.4400 79.04 75.52 8.41
6721 15.4420 75.44 76.46 8.16
6722 15.4440 77.30 77.56 8.22
6723 15.4460 87.37 78.34 8.74
6724 15.4480 82.16 78.23 8.48
6725 15.4500 71.89 77.31 7.97
6726 15.4520 72.24 76.27 7.99
6727 15.4540 75.30 75.45 8.16
6728 15.4560 78.59 74.89 8.35
6729 15.4580 82.73 74.54 8.54
6730 15.4600 79.68 74.33 8.39
6731 15.4620 71.06 74.20 7.90
6732 15.4640 85.09 74.12 8.58
6733 15.4660 80.15 74.07 8.42
6734 15.4680 74.57 74.05 8.14
6735 15.4700 76.38 74.03 8.23
6736 15.4720 71.26 73.96 8.00
6737 15.4740 78.49 74.00 8.39
6738 15.4760 80.66 74.01 8.46
6739 15.4780 83.00 74.02 8.52
6740 15.4800 72.97 74.03 8.06
6741 15.4820 68.61 74.11 7.84
6742 15.4840 68.50 74.14 7.83
6743 15.4860 75.32 74.16 8.18
6744 15.4880 71.83 74.19 7.97
6745 15.4900 64.58 74.22 7.58
6746 15.4920 66.89 74.25 7.71
6747 15.4940 66.71 74.28 7.67
6748 15.4960 72.83 74.32 7.99
6749 15.4980 84.95 74.36 8.65
6750 15.5000 80.21 74.40 8.39
6751 15.5020 77.74 74.44 8.23
6752 15.5040 87.02 74.49 8.70
6753 15.5060 81.55 74.54 8.45
6754 15.5080 84.29 74.59 8.62
6755 15.5100 75.81 74.65 8.23
6756 15.5120 77.83 74.71 8.31
6757 15.5140 81.20 74.77 8.47
6758 15.5160 77.53 74.84 8.28
6759 15.5180 68.95 74.92 7.82
6760 15.5200 65.59 75.00 7.61
6761 15.5220 68.24 75.09 7.79
6762 15.5240 80.57 75.18 8.48
6763 15.5260 83.91 75.29 8.53
6764 15.5280 78.26 75.40 8.24
6765 15.5300 66.79 75.53 7.69
6766 15.5320 63.51 75.67 7.49
6767 15.5340 72.29 75.82 8.03
6768 15.5360 76.19 76.00 8.15
6769 15.5380 71.88 76.19 7.94
6770 15.5400 80.79 76.42 8.43
6771 15.5420 83.54 76.67 8.61
6772 15.5440 88.85 76.97 8.82
6773 15.5460 75.26 77.31 8.11
6774 15.5480 74.36 77.71 8.10
6775 15.5500 96.96 78.19 9.17
6776 15.5520 90.67 78.77 8.90
6777 15.5540 81.11 79.47 8.46
6778 15.5560 88.72 80.34 8.78
6779 15.5580 79.93 81.43 8.35
6780 15.5600 69.47 82.84 7.77
6781 15.5620 82.38 84.71 8.45
6782 15.5640 87.06 87.31 8.81
6783 15.5660 86.05 91.17 8.70
6784 15.5680 83.50 97.18 8.56
6785 15.5700 89.87 106.80 8.89
6786 15.5720 108.98 121.81 9.75
6787 15.5740 147.41 143.73 11.34
6788 15.5760 184.48 171.72 12.78
6789 15.5780 226.78 197.91 14.11
6790 15.5800 209.61 205.37 13.59
6791 15.5820 164.87 187.38 12.12
6792 15.5840 153.71 158.79 11.67
6793 15.5860 120.96 133.24 10.32
6794 15.5880 95.68 114.68 9.20
6795 15.5900 108.03 102.44 9.69
6796 15.5920 102.58 94.79 9.47
6797 15.5940 94.92 90.02 9.13
6798 15.5960 97.25 86.94 9.21
6799 15.5980 93.13 84.85 9.08
6800 15.6000 86.03 83.35 8.74
6801 15.6020 82.63 82.25 8.52
6802 15.6040 86.01 81.44 8.71
6803 15.6060 92.53 80.83 9.10
6804 15.6080 93.47 80.40 9.06
6805 15.6100 88.47 80.10 8.80
6806 15.6120 96.88 79.92 9.29
6807 15.6140 95.87 79.86 9.25
6808 15.6160 84.45 79.90 8.65
6809 15.6180 81.38 80.07 8.51
6810 15.6200 89.23 80.38 8.83
6811 15.6220 88.50 80.88 8.80
6812 15.6240 85.88 81.66 8.72
6813 15.6260 87.47 82.91 8.73
6814 15.6280 83.49 84.93 8.61
6815 15.6300 92.97 88.18 9.07
6816 15.6320 87.81 93.22 8.85
6817 15.6340 107.91 100.39 9.76
6818 15.6360 101.53 109.12 9.51
6819 15.6380 112.98 116.25 10.00
6820 15.6400 123.57 116.66 10.37
6821 15.6420 119.49 110.10 10.21
6822 15.6440 98.43 101.60 9.36
6823 15.6460 92.13 94.53 9.05
6824 15.6480 94.40 89.63 9.18
6825 15.6500 87.21 86.57 8.82
6826 15.6520 89.29 84.83 8.90
6827 15.6540 90.50 83.94 8.93
6828 15.6560 78.84 83.59 8.40
6829 15.6580 89.49 83.63 8.92
6830 15.6600 95.57 84.00 9.12
6831 15.6620 88.45 84.70 8.77
6832 15.6640 83.59 85.80 8.64
6833 15.6660 98.11 87.47 9.33
6834 15.6680 95.22 90.03 9.10
6835 15.6700 80.96 94.09 8.44
6836 15.6720 104.05 100.57 9.60
6837 15.6740 106.09 110.60 9.69
6838 15.6760 101.81 125.08 9.51
6839 15.6780 118.44 143.35 10.33
6840 15.6800 110.81 160.09 10.04
6841 15.6820 133.39 164.64 10.95
6842 15.6840 142.90 153.55 11.30
6843 15.6860 149.47 136.46 11.45
6844 15.6880 156.96 121.74 11.64
6845 15.6900 147.69 111.87 11.29
6846 15.6920 152.21 106.63 11.58
6847 15.6940 130.69 105.36 10.77
6848 15.6960 100.25 107.70 9.43
6849 15.6980 116.72 113.96 10.12
6850 15.7000 116.97 124.98 10.12
6851 15.7020 108.21 141.58 9.75
6852 15.7040 122.61 163.07 10.35
6853 15.7060 132.15 184.29 10.78
6854 15.7080 162.29 197.85 12.06
6855 15.7100 201.07 206.09 13.45
6856 15.7120 204.26 216.99 13.52
6857 15.7140 211.34 227.14 13.67
6858 15.7160 258.16 221.38 15.07
6859 15.7180 264.60 195.76 15.44
6860 15.7200 257.94 164.43 15.01
6861 15.7220 225.82 138.20 13.85
6862 15.7240 196.51 119.39 12.81
6863 15.7260 157.26 106.94 11.54
6864 15.7280 137.00 98.96 10.90
6865 15.7300 110.41 93.79 9.82
6866 15.7320 95.82 90.29 9.14
6867 15.7340 95.41 87.80 9.13
6868 15.7360 98.16 85.93 9.26
6869 15.7380 88.68 84.48 8.86
6870 15.7400 87.89 83.33 8.78
6871 15.7420 85.98 82.40 8.65
6872 15.7440 80.68 81.64 8.48
6873 15.7460 81.65 81.01 8.54
6874 15.7480 80.21 80.48 8.46
6875 15.7500 90.48 80.04 8.91
6876 15.7520 72.97 79.66 8.02
6877 15.7540 79.98 79.33 8.35
6878 15.7560 76.72 79.05 8.23
6879 15.7580 71.80 78.81 7.93
6880 15.7600 78.70 78.60 8.33
6881 15.7620 76.87 78.41 8.32
6882 15.7640 77.91 78.25 8.31
6883 15.7660 75.58 78.10 8.15
6884 15.7680 70.37 77.98 7.87
6885 15.7700 81.69 77.86 8.46
6886 15.7720 75.32 77.76 8.17
6887 15.7740 68.40 77.67 7.75
6888 15.7760 64.75 77.59 7.52
6889 15.7780 70.98 77.52 7.89
6890 15.7800 81.63 77.46 8.51
6891 15.7820 78.25 77.40 8.24
6892 15.7840 68.98 77.35 7.76
6893 15.7860 79.65 77.30 8.36
6894 15.7880 78.74 77.26 8.39
6895 15.7900 78.22 77.23 8.35
6896 15.7920 87.72 77.20 8.79
6897 15.7940 85.74 77.17 8.73
6898 15.7960 80.91 77.15 8.42
6899 15.7980 85.23 77.13 8.63
6900 15.8000 92.98 77.11 9.06
6901 15.8020 82.48 77.09 8.59
6902 15.8040 79.44 77.16 8.37
6903 15.8060 69.74 77.15 7.86
6904 15.8080 68.39 77.14 7.86
6905 15.8100 80.86 77.14 8.46
6906 15.8120 77.27 77.13 8.24
6907 15.8140 75.27 77.07 8.12
6908 15.8160 63.25 77.07 7.51
6909 15.8180 77.91 77.08 8.29
6910 15.8200 76.52 77.09 8.27
6911 15.8220 72.81 77.10 8.04
6912 15.8240 85.24 77.11 8.64
6913 15.8260 80.05 77.12 8.38
6914 15.8280 76.32 77.14 8.22
6915 15.8300 81.08 77.15 8.46
6916 15.8320 75.98 77.18 8.19
6917 15.8340 81.02 77.20 8.43
6918 15.8360 76.83 77.23 8.23
6919 15.8380 73.98 77.26 8.07
6920 15.8400 65.76 77.30 7.64
6921 15.8420 80.98 77.34 8.46
6922 15.8440 84.81 77.39 8.65
6923 15.8460 78.49 77.46 8.32
6924 15.8480 77.65 77.53 8.30
6925 15.8500 79.04 77.63 8.35
6926 15.8520 73.47 77.75 8.04
6927 15.8540 71.20 77.90 7.95
6928 15.8560 72.21 78.12 8.00
6929 15.8580 86.23 78.45 8.70
6930 15.8600 82.19 78.97 8.52
6931 15.8620 85.54 79.76 8.73
6932 15.8640 91.03 80.96 9.01
6933 15.8660 78.90 82.64 8.32
6934 15.8680 85.45 84.65 8.65
6935 15.8700 92.24 86.27 9.11
6936 15.8720 88.51 86.35 8.84
6937 15.8740 107.55 84.82 9.67
6938 15.8760 94.82 82.84 9.12
6939 15.8780 77.89 81.16 8.10
6940 15.8800 64.99 79.97 7.44
6941 15.8820 83.78 79.19 8.55
6942 15.8840 99.38 78.70 9.30
6943 15.8860 93.32 78.40 9.07
6944 15.8880 83.60 78.21 8.55
6945 15.8900 73.22 78.09 8.00
6946 15.8920 80.74 78.00 8.36
6947 15.8940 89.23 77.94 8.75
6948 15.8960 75.78 77.90 8.13
6949 15.8980 70.34 77.87 7.89
6950 15.9000 69.34 77.85 7.80
6951 15.9020 71.39 77.84 7.89
6952 15.9040 81.68 77.83 8.50
6953 15.9060 74.65 77.83 8.09
6954 15.9080 69.50 77.84 7.81
6955 15.9100 83.54 77.85 8.59
6956 15.9120 81.92 77.86 8.42
6957 15.9140 82.44 77.87 8.40
6958 15.9160 88.00 77.85 8.78
6959 15.9180 96.69 77.86 9.25
6960 15.9200 97.42 77.88 9.30
6961 15.9220 86.06 77.91 8.74
6962 15.9240 71.21 77.93 7.93
6963 15.9260 67.51 78.08 7.70
6964 15.9280 82.11 78.11 8.49
6965 15.9300 80.05 78.14 8.46
6966 15.9320 75.37 78.17 8.18
6967 15.9340 81.25 78.22 8.47
6968 15.9360 90.75 78.25 8.91
6969 15.9380 76.45 78.29 8.18
6970 15.9400 75.13 78.32 8.05
6971 15.9420 75.06 78.32 8.10
6972 15.9440 86.88 78.36 8.75
6973 15.9460 82.31 78.40 8.52
6974 15.9480 83.08 78.45 8.55
6975 15.9500 84.70 78.43 8.61
6976 15.9520 87.40 78.48 8.71
6977 15.9540 67.73 78.53 7.78
6978 15.9560 80.13 78.58 8.40
6979 15.9580 75.05 78.63 8.20
6980 15.9600 84.69 78.68 8.65
6981 15.9620 80.65 78.74 8.44
6982 15.9640 74.43 78.80 8.11
6983 15.9660 82.38 78.87 8.49
6984 15.9680 72.20 78.93 7.99
6985 15.9700 59.29 79.00 7.20
6986 15.9720 67.56 79.08 7.64
6987 15.9740 67.97 79.15 7.78
6988 15.9760 71.22 79.24 7.98
6989 15.9780 81.29 79.33 8.52
6990 15.9800 85.66 79.42 8.74
6991 15.9820 80.15 79.53 8.40
6992 15.9840 75.26 79.64 8.15
6993 15.9860 76.92 79.76 8.24
6994 15.9880 80.59 79.89 8.45
6995 15.9900 76.19 80.03 8.25
6996 15.9920 81.53 80.19 8.38
6997 15.9940 77.13 80.36 8.21
6998 15.9960 88.63 80.55 8.85
6999 15.9980 86.36 80.76 13.03
7000 16.0000 94.27 81.00 9.07
7001 16.0020 87.18 81.28 8.76
7002 16.0040 97.23 81.59 9.23
7003 16.0060 93.21 81.94 9.08
7004 16.0080 80.47 82.36 8.31
7005 16.0100 78.99 82.84 8.19
7006 16.0120 82.57 83.41 8.50
7007 16.0140 86.21 84.10 8.72
7008 16.0160 91.69 84.93 9.00
7009 16.0180 89.24 85.96 8.89
7010 16.0200 89.12 87.24 8.85
7011 16.0220 90.97 88.89 8.91
7012 16.0240 92.13 91.07 8.99
7013 16.0260 97.85 94.10 9.32
7014 16.0280 92.72 98.54 9.08
7015 16.0300 99.00 105.40 9.30
7016 16.0320 106.60 116.25 9.66
7017 16.0340 123.15 133.08 10.41
7018 16.0360 118.54 157.52 10.26
7019 16.0380 154.68 189.19 11.68
7020 16.0400 207.94 220.86 13.60
7021 16.0420 251.90 234.86 14.87
7022 16.0440 233.50 219.51 14.31
7023 16.0460 207.15 187.62 13.30
7024 16.0480 153.52 156.35 11.50
7025 16.0500 126.05 132.47 10.51
7026 16.0520 111.37 116.13 9.89
7027 16.0540 94.62 105.66 9.09
7028 16.0560 98.05 99.10 9.20
7029 16.0580 99.95 94.90 9.33
7030 16.0600 90.53 92.07 8.91
7031 16.0620 99.34 90.08 9.30
7032 16.0640 85.41 88.62 8.66
7033 16.0660 95.14 87.52 9.07
7034 16.0680 87.20 86.70 8.79
7035 16.0700 85.91 86.09 8.70
7036 16.0720 92.64 85.66 9.10
7037 16.0740 94.01 85.36 9.10
7038 16.0760 92.38 85.20 8.90
7039 16.0780 83.88 85.17 8.58
7040 16.0800 95.87 85.28 9.25
7041 16.0820 87.95 85.56 8.81
7042 16.0840 82.15 86.07 8.51
7043 16.0860 79.95 86.93 8.33
7044 16.0880 82.77 88.38 8.44
7045 16.0900 90.98 90.74 8.86
7046 16.0920 85.84 94.45 8.60
7047 16.0940 93.07 99.85 8.96
7048 16.0960 114.45 106.76 9.94
7049 16.0980 116.32 113.47 10.09
7050 16.1000 115.42 116.10 10.07
7051 16.1020 116.28 112.45 10.15
7052 16.1040 112.34 105.54 9.99
7053 16.1060 95.50 98.95 9.21
7054 16.1080 106.66 93.99 9.66
7055 16.1100 102.68 90.66 9.50
7056 16.1120 88.91 88.60 8.81
7057 16.1140 91.57 87.39 8.90
7058 16.1160 110.31 86.70 9.81
7059 16.1180 99.62 86.33 9.34
7060 16.1200 84.15 86.17 8.56
7061 16.1220 82.56 86.17 8.45
7062 16.1240 85.50 86.29 8.59
7063 16.1260 89.12 86.53 8.81
7064 16.1280 96.95 86.88 9.18
7065 16.1300 97.54 87.35 9.28
7066 16.1320 93.02 87.96 9.06
7067 16.1340 87.47 88.71 8.76
7068 16.1360 89.23 89.65 8.85
7069 16.1380 94.10 90.82 9.15
7070 16.1400 100.24 92.27 9.42
7071 16.1420 104.93 94.09 9.57
7072 16.1440 110.99 96.41 9.82
7073 16.1460 115.55 99.42 10.02
7074 16.1480 126.63 103.45 10.48
7075 16.1500 126.14 109.11 10.53
7076 16.1520 124.03 117.48 10.50
7077 16.1540 159.25 130.46 11.76
7078 16.1560 186.20 150.93 12.70
7079 16.1580 213.73 182.28 13.57
7080 16.1600 276.61 227.16 15.40
7081 16.1620 368.10 283.90 17.72
7082 16.1640 484.68 338.10 20.41
7083 16.1660 454.87 359.11 20.01
7084 16.1680 367.01 332.56 18.14
7085 16.1700 282.93 283.55 15.88
7086 16.1720 221.06 237.78 13.90
7087 16.1740 181.12 201.05 12.62
7088 16.1760 162.38 170.74 11.98
7089 16.1780 137.79 146.67 11.12
7090 16.1800 133.04 129.08 10.87
7091 16.1820 111.80 116.90 9.95
7092 16.1840 97.95 108.54 9.26
7093 16.1860 99.74 102.76 9.28
7094 16.1880 84.46 98.69 8.65
7095 16.1900 105.79 95.70 9.61
7096 16.1920 92.60 93.43 9.12
7097 16.1940 101.54 91.66 9.45
7098 16.1960 86.28 90.25 8.77
7099 16.1980 88.95 89.09 8.83
7100 16.2000 86.41 88.14 8.65
7101 16.2020 93.97 87.35 8.97
7102 16.2040 80.99 86.68 8.35
7103 16.2060 78.69 86.11 8.26
7104 16.2080 82.61 85.62 8.52
7105 16.2100 83.22 85.21 8.60
7106 16.2120 97.43 84.84 9.28
7107 16.2140 85.64 84.53 8.67
7108 16.2160 74.43 84.25 8.07
7109 16.2180 84.82 84.01 8.52
7110 16.2200 80.03 83.80 8.35
7111 16.2220 68.40 83.61 7.78
7112 16.2240 86.92 83.44 8.68
7113 16.2260 90.41 83.29 8.86
7114 16.2280 84.13 83.16 8.56
7115 16.2300 85.96 83.04 8.57
7116 16.2320 71.47 82.94 7.83
7117 16.2340 86.17 82.85 8.61
7118 16.2360 86.03 82.76 8.62
7119 16.2380 80.54 82.69 8.31
7120 16.2400 77.45 82.62 8.19
7121 16.2420 68.25 82.56 7.74
7122 16.2440 82.73 82.51 8.43
7123 16.2460 79.89 82.47 8.37
7124 16.2480 89.04 82.43 8.85
7125 16.2500 89.75 82.40 8.87
7126 16.2520 94.78 82.38 9.08
7127 16.2540 89.38 82.37 8.85
7128 16.2560 93.69 82.37 9.08
7129 16.2580 93.14 82.40 9.06
7130 16.2600 80.45 82.46 8.41
7131 16.2620 65.28 82.56 7.64
7132 16.2640 76.55 82.70 8.17
7133 16.2660 79.87 82.85 8.36
7134 16.2680 84.20 82.94 8.64
7135 16.2700 92.68 82.87 9.06
7136 16.2720 88.83 82.71 8.82
7137 16.2740 81.25 82.53 8.41
7138 16.2760 83.10 82.40 8.55
7139 16.2780 90.71 82.30 8.90
7140 16.2800 91.68 82.23 8.91
7141 16.2820 86.64 82.12 8.59
7142 16.2840 80.86 82.09 8.36
7143 16.2860 84.13 82.08 8.57
7144 16.2880 90.72 82.07 8.86
7145 16.2900 82.62 82.06 8.52
7146 16.2920 86.09 82.06 8.67
7147 16.2940 83.54 82.06 8.52
7148 16.2960 74.06 82.06 8.04
7149 16.2980 81.79 82.07 8.39
7150 16.3000 67.73 82.07 7.68
7151 16.3020 83.74 82.09 8.50
7152 16.3040 90.44 82.10 8.82
7153 16.3060 104.23 82.10 9.43
7154 16.3080 76.91 82.11 8.20
7155 16.3100 76.43 82.13 8.15
7156 16.3120 89.47 82.14 8.85
7157 16.3140 81.68 82.15 8.46
7158 16.3160 75.24 82.16 8.09
7159 16.3180 87.03 82.18 8.67
7160 16.3200 76.49 82.19 8.19
7161 16.3220 71.18 82.21 7.91
7162 16.3240 76.87 82.23 8.16
7163 16.3260 87.54 82.25 8.69
7164 16.3280 95.88 82.27 9.14
7165 16.3300 87.53 82.29 8.71
7166 16.3320 90.61 82.31 8.80
7167 16.3340 81.04 82.33 8.44
7168 16.3360 90.17 82.36 8.82
7169 16.3380 75.23 82.38 8.09
7170 16.3400 81.86 82.40 8.36
7171 16.3420 69.57 82.43 7.74
7172 16.3440 79.46 82.46 8.29
7173 16.3460 86.30 82.50 8.66
7174 16.3480 71.64 82.55 7.92
7175 16.3500 73.81 82.60 7.97
7176 16.3520 77.35 82.67 8.18
7177 16.3540 81.18 82.75 8.38
7178 16.3560 86.12 82.87 8.65
7179 16.3580 83.51 83.03 8.57
7180 16.3600 93.44 83.24 9.05
7181 16.3620 87.47 83.51 8.79
7182 16.3640 86.98 83.79 8.69
7183 16.3660 80.89 83.98 8.41
7184 16.3680 76.81 83.97 8.21
7185 16.3700 76.80 83.85 8.16
7186 16.3720 82.78 83.75 8.44
7187 16.3740 87.96 83.72 8.75
7188 16.3760 94.82 83.77 9.03
7189 16.3780 84.74 83.90 8.58
7190 16.3800 104.19 84.13 9.45
7191 16.3820 75.30 84.47 8.11
7192 16.3840 78.86 84.98 8.26
7193 16.3860 78.24 85.78 8.36
7194 16.3880 85.86 87.04 8.69
7195 16.3900 81.64 88.98 8.41
7196 16.3920 96.58 91.84 9.04
7197 16.3940 95.50 95.63 9.03
7198 16.3960 94.55 99.74 9.10
7199 16.3980 89.18 102.34 8.79
7200 16.4000 71.84 101.46 7.95
7201 16.4020 91.40 97.85 8.95
7202 16.4040 90.96 93.78 9.00
7203 16.4060 82.24 90.44 8.48
7204 16.4080 80.18 87.94 8.40
7205 16.4100 88.15 86.38 8.86
7206 16.4120 93.55 85.39 9.04
7207 16.4140 85.83 84.76 8.69
7208 16.4160 79.47 84.33 8.42
7209 16.4180 88.45 84.05 8.73
7210 16.4200 77.92 83.84 8.20
7211 16.4220 75.01 83.69 8.10
7212 16.4240 86.77 83.57 8.63
7213 16.4260 86.77 83.48 8.62
7214 16.4280 77.66 83.41 8.25
7215 16.4300 76.79 83.35 8.20
7216 16.4320 87.90 83.31 8.75
7217 16.4340 92.53 83.28 9.03
7218 16.4360 95.55 83.25 9.14
7219 16.4380 69.40 83.23 7.82
7220 16.4400 82.59 83.22 8.43
7221 16.4420 64.62 83.21 7.59
7222 16.4440 73.46 83.20 8.01
7223 16.4460 95.54 83.20 9.09
7224 16.4480 95.32 83.20 9.09
7225 16.4500 76.66 83.20 8.20
7226 16.4520 83.07 83.21 8.54
7227 16.4540 86.43 83.21 8.68
7228 16.4560 91.98 83.22 8.87
7229 16.4580 74.50 83.23 8.12
7230 16.4600 93.84 83.24 9.01
7231 16.4620 86.99 83.25 8.68
7232 16.4640 82.80 83.26 8.47
7233 16.4660 76.65 83.27 8.20
7234 16.4680 97.93 83.29 9.18
7235 16.4700 86.89 83.30 8.74
7236 16.4720 81.56 83.32 8.44
7237 16.4740 95.56 83.33 9.08
7238 16.4760 82.36 83.35 8.45
7239 16.4780 81.24 83.36 8.41
7240 16.4800 83.96 83.38 8.53
7241 16.4820 74.95 83.40 8.09
7242 16.4840 82.86 83.42 8.56
7243 16.4860 93.17 83.44 9.00
7244 16.4880 79.81 83.46 8.37
7245 16.4900 84.17 83.48 8.52
7246 16.4920 76.33 83.51 8.15
7247 16.4940 84.25 83.53 8.58
7248 16.4960 79.58 83.55 8.35
7249 16.4980 71.84 83.58 7.95
7250 16.5000 72.64 83.61 7.92
7251 16.5020 80.14 83.64 8.32
7252 16.5040 94.05 83.67 9.01
7253 16.5060 94.40 83.70 9.04
7254 16.5080 94.46 83.74 9.08
7255 16.5100 82.72 83.78 8.55
7256 16.5120 87.23 83.83 8.70
7257 16.5140 79.01 83.88 8.27
7258 16.5160 92.05 83.93 8.90
7259 16.5180 81.94 84.00 8.47
7260 16.5200 75.69 84.07 8.10
7261 16.5220 72.87 84.16 7.99
7262 16.5240 85.56 84.27 8.67
7263 16.5260 86.21 84.39 8.70
7264 16.5280 79.12 84.55 8.26
7265 16.5300 69.06 84.76 7.75
7266 16.5320 82.28 85.05 8.44
7267 16.5340 97.40 85.46 9.16
7268 16.5360 90.70 86.09 8.94
7269 16.5380 93.96 87.06 9.06
7270 16.5400 82.00 88.54 8.49
7271 16.5420 87.58 90.65 8.70
7272 16.5440 92.69 93.33 8.96
7273 16.5460 105.86 96.00 9.61
7274 16.5480 115.38 97.26 10.07
7275 16.5500 112.95 96.13 10.04
7276 16.5520 100.84 93.53 9.45
7277 16.5540 102.64 90.88 9.45
7278 16.5560 84.12 88.79 8.54
7279 16.5580 79.88 87.33 8.32
7280 16.5600 82.44 86.39 8.51
7281 16.5620 77.93 85.80 8.35
7282 16.5640 90.75 85.43 8.92
7283 16.5660 83.91 85.19 8.56
7284 16.5680 80.13 85.03 8.43
7285 16.5700 85.22 84.93 8.62
7286 16.5720 74.76 84.86 8.11
7287 16.5740 89.06 84.81 8.82
7288 16.5760 87.67 84.80 8.74
7289 16.5780 95.79 84.80 9.12
7290 16.5800 86.64 84.82 8.75
7291 16.5820 74.52 84.87 8.16
7292 16.5840 90.99 84.93 8.95
7293 16.5860 89.78 85.01 8.89
7294 16.5880 92.16 85.12 8.95
7295 16.5900 89.65 85.27 8.83
7296 16.5920 82.29 85.46 8.47
7297 16.5940 83.66 85.71 8.52
7298 16.5960 87.50 86.08 8.75
7299 16.5980 85.19 86.61 8.61
7300 16.6000 86.93 87.44 8.65
7301 16.6020 98.77 88.73 9.19
7302 16.6040 79.52 90.71 8.26
7303 16.6060 79.00 93.55 8.21
7304 16.6080 93.34 97.20 9.01
7305 16.6100 106.34 100.92 9.61
7306 16.6120 98.70 102.85 9.28
7307 16.6140 103.94 101.50 9.59
7308 16.6160 96.66 97.96 9.25
7309 16.6180 95.72 94.22 9.23
7310 16.6200 91.79 91.22 9.03
7311 16.6220 85.50 89.10 8.62
7312 16.6240 88.76 87.71 8.77
7313 16.6260 99.59 86.82 9.27
7314 16.6280 97.27 86.25 9.19
7315 16.6300 103.40 85.87 9.51
7316 16.6320 98.43 85.60 9.23
7317 16.6340 87.09 85.41 8.68
7318 16.6360 92.13 85.26 8.95
7319 16.6380 89.17 85.14 8.90
7320 16.6400 80.95 85.05 8.45
7321 16.6420 91.07 84.98 8.86
7322 16.6440 93.80 84.91 9.03
7323 16.6460 106.75 84.86 9.60
7324 16.6480 100.03 84.82 9.28
7325 16.6500 95.14 84.79 9.11
7326 16.6520 101.85 84.76 9.46
7327 16.6540 93.17 84.74 9.06
7328 16.6560 95.27 84.73 9.12
7329 16.6580 90.27 84.71 8.91
7330 16.6600 84.20 84.70 8.62
7331 16.6620 88.23 84.70 8.80
7332 16.6640 83.85 84.69 8.55
7333 16.6660 85.34 84.69 8.59
7334 16.6680 81.19 84.68 8.46
7335 16.6700 81.84 84.68 8.51
7336 16.6720 77.76 84.68 8.27
7337 16.6740 83.12 84.68 8.50
7338 16.6760 98.58 84.68 9.21
7339 16.6780 100.07 84.76 9.33
7340 16.6800 106.17 84.76 9.64
7341 16.6820 85.21 84.77 8.62
7342 16.6840 80.05 84.78 8.35
7343 16.6860 85.46 84.78 8.64
7344 16.6880 90.59 84.79 8.86
7345 16.6900 83.88 84.79 8.44
7346 16.6920 73.23 84.80 7.92
7347 16.6940 82.46 84.81 8.45
7348 16.6960 82.13 84.82 8.48
7349 16.6980 84.09 84.82 8.56
7350 16.7000 95.72 84.83 9.13
7351 16.7020 84.00 84.84 8.67
7352 16.7040 84.41 84.85 8.57
7353 16.7060 89.30 84.86 8.83
7354 16.7080 79.27 84.87 8.36
7355 16.7100 76.73 84.88 8.19
7356 16.7120 78.13 84.89 8.29
7357 16.7140 85.74 84.90 8.64
7358 16.7160 86.55 84.91 8.67
7359 16.7180 85.01 84.92 8.64
7360 16.7200 109.98 84.93 9.74
7361 16.7220 101.96 84.94 9.45
7362 16.7240 86.75 84.95 8.66
7363 16.7260 90.66 84.97 8.81
7364 16.7280 87.41 84.98 8.73
7365 16.7300 83.08 84.99 8.52
7366 16.7320 81.41 85.00 8.44
7367 16.7340 75.56 85.02 8.11
7368 16.7360 89.79 85.03 8.79
7369 16.7380 87.08 85.04 8.71
7370 16.7400 82.91 85.06 8.48
7371 16.7420 85.19 85.07 8.62
7372 16.7440 80.67 85.09 8.44
7373 16.7460 79.25 85.10 8.34
7374 16.7480 93.05 85.12 8.97
7375 16.7500 91.32 85.13 8.94
7376 16.7520 82.01 85.15 8.40
7377 16.7540 69.22 85.17 7.71
7378 16.7560 74.68 85.19 8.01
7379 16.7580 79.68 85.21 8.28
7380 16.7600 78.00 85.23 8.21
7381 16.7620 81.97 85.25 8.43
7382 16.7640 79.88 85.27 8.36
7383 16.7660 82.67 85.30 8.49
7384 16.7680 102.84 85.32 9.43
7385 16.7700 80.35 85.35 8.28
7386 16.7720 73.68 85.43 7.95
7387 16.7740 76.32 85.46 8.18
7388 16.7760 77.39 85.50 8.23
7389 16.7780 92.01 85.53 9.01
7390 16.7800 85.16 85.57 8.66
7391 16.7820 86.07 85.62 8.61
7392 16.7840 80.79 85.67 8.35
7393 16.7860 79.07 85.72 8.25
7394 16.7880 79.59 85.78 8.31
7395 16.7900 84.68 85.85 8.54
7396 16.7920 77.36 85.93 8.23
7397 16.7940 92.33 86.01 8.98
7398 16.7960 81.23 86.11 8.46
7399 16.7980 80.53 86.22 8.40
7400 16.8000 85.23 86.36 8.61
7401 16.8020 80.89 86.55 8.39
7402 16.8040 91.38 86.74 8.88
7403 16.8060 85.29 86.98 8.65
7404 16.8080 94.09 87.27 9.04
7405 16.8100 90.91 87.63 8.95
7406 16.8120 96.65 88.10 9.23
7407 16.8140 96.87 88.74 9.22
7408 16.8160 91.61 89.65 9.01
7409 16.8180 96.01 91.01 9.19
7410 16.8200 94.22 93.13 9.09
7411 16.8220 95.49 96.39 9.09
7412 16.8240 91.76 101.18 8.96
7413 16.8260 106.51 107.66 9.71
7414 16.8280 132.12 115.13 10.69
7415 16.8300 130.59 120.98 10.62
7416 16.8320 125.92 121.41 10.50
7417 16.8340 123.57 116.08 10.43
7418 16.8360 116.58 108.68 10.05
7419 16.8380 97.07 102.07 9.23
7420 16.8400 95.62 97.11 9.21
7421 16.8420 83.73 93.74 8.63
7422 16.8440 101.39 91.55 9.36
7423 16.8460 87.85 90.17 8.76
7424 16.8480 96.89 89.27 9.18
7425 16.8500 96.33 88.66 9.13
7426 16.8520 85.89 88.24 8.63
7427 16.8540 77.97 87.93 8.30
7428 16.8560 78.82 87.69 8.35
7429 16.8580 90.87 87.52 8.96
7430 16.8600 87.51 87.39 8.75
7431 16.8620 80.85 87.30 8.42
7432 16.8640 83.08 87.25 8.50
7433 16.8660 79.76 87.22 8.28
7434 16.8680 73.60 87.21 7.98
7435 16.8700 75.94 87.22 8.15
7436 16.8720 77.91 87.25 8.31
7437 16.8740 88.52 87.30 8.76
7438 16.8760 86.66 87.37 8.70
7439 16.8780 85.96 87.46 8.67
7440 16.8800 85.08 87.56 8.64
7441 16.8820 94.67 87.69 9.09
7442 16.8840 81.30 87.85 8.43
7443 16.8860 66.73 88.03 7.65
7444 16.8880 78.89 88.24 8.27
7445 16.8900 92.63 88.49 8.99
7446 16.8920 83.98 88.78 8.57
7447 16.8940 70.82 89.12 7.91
7448 16.8960 81.16 89.53 8.42
7449 16.8980 77.46 90.02 8.24
7450 16.9000 84.28 90.60 8.53
7451 16.9020 77.51 91.31 8.19
7452 16.9040 95.18 92.18 9.05
7453 16.9060 91.58 93.26 8.91
7454 16.9080 93.92 94.63 8.99
7455 16.9100 95.65 96.40 9.11
7456 16.9120 103.92 98.79 9.48
7457 16.9140 102.06 102.15 9.44
7458 16.9160 94.91 107.15 9.12
7459 16.9180 107.09 114.87 9.66
7460 16.9200 110.54 126.86 9.86
7461 16.9220 122.56 144.83 10.34
7462 16.9240 121.61 169.94 10.37
7463 16.9260 185.37 200.97 12.74
7464 16.9280 245.52 230.20 14.68
7465 16.9300 276.96 241.84 15.54
7466 16.9320 259.75 226.80 14.95
7467 16.9340 185.19 196.52 12.69
7468 16.9360 162.05 166.08 11.90
7469 16.9380 121.26 142.01 10.35
7470 16.9400 124.92 125.00 10.44
7471 16.9420 127.03 113.75 10.48
7472 16.9440 106.82 106.52 9.58
7473 16.9460 100.59 101.84 9.26
7474 16.9480 88.39 98.68 8.79
7475 16.9500 97.96 96.43 9.22
7476 16.9520 91.51 94.76 8.92
7477 16.9540 90.39 93.48 8.85
7478 16.9560 82.40 92.47 8.50
7479 16.9580 90.66 91.67 8.86
7480 16.9600 81.41 91.03 8.40
7481 16.9620 80.90 90.51 8.38
7482 16.9640 88.73 90.10 8.83
7483 16.9660 87.39 89.76 8.74
7484 16.9680 76.90 89.49 8.20
7485 16.9700 86.44 89.28 8.69
7486 16.9720 101.12 89.11 9.40
7487 16.9740 91.00 88.99 8.96
7488 16.9760 93.83 88.92 8.95
7489 16.9780 104.53 88.88 9.45
7490 16.9800 98.89 88.88 9.32
7491 16.9820 95.54 88.91 9.15
7492 16.9840 96.03 88.99 9.24
7493 16.9860 104.53 89.11 9.54
7494 16.9880 84.25 89.27 8.55
7495 16.9900 94.00 89.50 8.98
7496 16.9920 88.33 89.78 8.79
7497 16.9940 95.07 90.14 9.03
7498 16.9960 83.24 90.60 8.53
7499 16.9980 91.91 91.17 8.96
7500 17.0000 94.08 91.90 9.04
7501 17.0020 82.72 92.83 8.47
7502 17.0040 90.48 94.05 8.81
7503 17.0060 103.30 95.69 9.42
7504 17.0080 123.91 98.01 10.35
7505 17.0100 130.99 101.47 10.68
7506 17.0120 140.69 106.78 10.93
7507 17.0140 141.78 115.00 10.97
7508 17.0160 192.90 127.29 12.71
7509 17.0180 193.97 144.40 12.82
7510 17.0200 181.60 165.50 12.63
7511 17.0220 182.52 185.52 12.77
7512 17.0240 185.28 193.88 12.94
7513 17.0260 178.77 184.32 12.80
7514 17.0280 160.88 164.26 12.12
7515 17.0300 122.65 143.98 10.42
7516 17.0320 116.23 128.04 10.06
7517 17.0340 116.64 117.01 10.12
7518 17.0360 114.85 110.13 10.05
7519 17.0380 108.51 106.36 9.71
7520 17.0400 122.92 104.92 10.22
7521 17.0420 152.58 105.48 11.35
7522 17.0440 163.04 108.22 11.74
7523 17.0460 154.96 113.64 11.47
7524 17.0480 134.71 122.40 10.72
7525 17.0500 132.31 134.65 10.61
7526 17.0520 137.78 148.88 10.87
7527 17.0540 129.26 159.95 10.67
7528 17.0560 140.01 160.38 11.23
7529 17.0580 148.75 149.50 11.58
7530 17.0600 142.28 134.41 11.26
7531 17.0620 113.81 120.78 10.05
7532 17.0640 95.33 110.44 9.23
7533 17.0660 92.60 103.25 9.02
7534 17.0680 98.31 98.50 9.24
7535 17.0700 91.87 95.40 8.96
7536 17.0720 88.73 93.33 8.78
7537 17.0740 93.86 91.87 8.97
7538 17.0760 87.95 90.79 8.72
7539 17.0780 72.86 89.96 7.96
7540 17.0800 77.77 89.29 8.14
7541 17.0820 77.76 88.73 8.14
7542 17.0840 77.02 88.28 8.17
7543 17.0860 89.20 87.91 8.86
7544 17.0880 87.94 87.59 8.84
7545 17.0900 86.43 87.31 8.74
7546 17.0920 90.90 87.08 8.90
7547 17.0940 85.87 86.87 8.71
7548 17.0960 80.95 86.69 8.41
7549 17.0980 77.36 86.53 8.19
7550 17.1000 87.75 86.44 8.74
7551 17.1020 91.03 86.31 8.90
7552 17.1040 83.84 86.20 8.49
7553 17.1060 78.48 86.09 8.26
7554 17.1080 81.03 85.99 8.41
7555 17.1100 88.67 85.91 8.78
7556 17.1120 94.35 85.83 9.10
7557 17.1140 98.84 85.75 9.22
7558 17.1160 90.81 85.68 8.86
7559 17.1180 76.65 85.62 8.21
7560 17.1200 85.38 85.56 8.59
7561 17.1220 85.11 85.50 8.62
7562 17.1240 96.10 85.45 9.11
7563 17.1260 88.54 85.40 8.80
7564 17.1280 93.48 85.35 9.06
7565 17.1300 94.73 85.31 9.12
7566 17.1320 82.70 85.27 8.51
7567 17.1340 90.19 85.23 8.83
7568 17.1360 97.49 85.19 9.20
7569 17.1380 85.53 85.15 8.60
7570 17.1400 85.03 85.12 8.56
7571 17.1420 85.14 85.09 8.57
7572 17.1440 87.36 85.06 8.69
7573 17.1460 83.31 85.03 8.56
7574 17.1480 82.68 85.00 8.48
7575 17.1500 76.08 84.97 8.10
7576 17.1520 70.53 84.94 7.88
7577 17.1540 86.36 84.91 8.67
7578 17.1560 84.22 84.89 8.61
7579 17.1580 76.90 84.86 8.23
7580 17.1600 76.66 84.84 8.19
7581 17.1620 96.40 84.82 9.14
7582 17.1640 92.84 84.79 9.00
7583 17.1660 75.53 84.77 8.19
7584 17.1680 73.88 84.75 8.05
7585 17.1700 70.98 84.73 7.93
7586 17.1720 86.36 84.71 8.71
7587 17.1740 81.36 84.69 8.46
7588 17.1760 80.44 84.67 8.41
7589 17.1780 88.10 84.65 8.66
7590 17.1800 70.81 84.63 7.80
7591 17.1820 70.25 84.62 7.82
7592 17.1840 86.26 84.52 8.66
7593 17.1860 85.42 84.51 8.62
7594 17.1880 90.61 84.49 8.85
7595 17.1900 87.15 84.53 8.68
7596 17.1920 83.84 84.52 8.51
7597 17.1940 76.45 84.50 8.18
7598 17.1960 92.86 84.49 8.95
7599 17.1980 78.27 84.48 8.27
7600 17.2000 90.70 84.46 8.81
7601 17.2020 83.21 84.45 8.54
7602 17.2040 81.30 84.44 8.45
7603 17.2060 91.07 84.43 8.87
7604 17.2080 80.42 84.42 8.32
7605 17.2100 74.36 84.40 8.07
7606 17.2120 77.40 84.42 8.26
7607 17.2140 77.70 84.41 8.26
7608 17.2160 89.49 84.40 8.80
7609 17.2180 79.74 84.39 8.39
7610 17.2200 77.33 84.38 8.29
7611 17.2220 76.77 84.37 8.20
7612 17.2240 82.22 84.37 8.44
7613 17.2260 76.05 84.36 8.20
7614 17.2280 83.57 84.35 8.56
7615 17.2300 78.27 84.35 8.27
7616 17.2320 75.01 84.34 8.09
7617 17.2340 85.29 84.34 8.52
7618 17.2360 79.91 84.33 8.26
7619 17.2380 81.03 84.33 8.36
7620 17.2400 90.58 84.33 8.81
7621 17.2420 76.40 84.33 8.18
7622 17.2440 91.78 84.33 8.88
7623 17.2460 80.56 84.34 8.44
7624 17.2480 84.61 84.34 8.65
7625 17.2500 83.29 84.36 8.53
7626 17.2520 86.44 84.37 8.67
7627 17.2540 85.33 84.40 8.58
7628 17.2560 82.93 84.45 8.51
7629 17.2580 88.36 84.52 8.75
7630 17.2600 85.72 84.62 8.64
7631 17.2620 75.62 84.77 8.22
7632 17.2640 82.71 84.96 8.52
7633 17.2660 89.64 85.16 8.86
7634 17.2680 74.81 85.30 8.06
7635 17.2700 82.41 85.27 8.43
7636 17.2720 86.12 85.12 8.71
7637 17.2740 84.52 84.93 8.65
7638 17.2760 93.68 84.77 9.06
7639 17.2780 100.83 84.61 9.40
7640 17.2800 86.41 84.54 8.75
7641 17.2820 84.40 84.51 8.64
7642 17.2840 87.57 84.50 8.80
7643 17.2860 90.00 84.50 8.86
7644 17.2880 82.08 84.52 8.45
7645 17.2900 82.55 84.54 8.49
7646 17.2920 87.19 84.57 8.59
7647 17.2940 86.24 84.61 8.56
7648 17.2960 90.50 84.66 8.94
7649 17.2980 78.70 84.71 8.37
7650 17.3000 79.83 84.78 8.34
7651 17.3020 80.09 84.85 8.28
7652 17.3040 78.41 84.93 8.26
7653 17.3060 79.13 85.03 8.35
7654 17.3080 74.99 85.13 8.08
7655 17.3100 82.10 85.22 8.43
7656 17.3120 90.60 85.36 8.91
7657 17.3140 93.38 85.53 9.02
7658 17.3160 77.68 85.72 8.25
7659 17.3180 86.09 85.94 8.63
7660 17.3200 72.48 86.20 7.98
7661 17.3220 77.72 86.50 8.25
7662 17.3240 85.37 86.86 8.64
7663 17.3260 84.54 87.28 8.65
7664 17.3280 95.77 87.80 9.19
7665 17.3300 96.17 88.42 9.17
7666 17.3320 88.10 89.19 8.71
7667 17.3340 85.21 90.15 8.59
7668 17.3360 86.86 91.38 8.65
7669 17.3380 87.63 92.99 8.72
7670 17.3400 98.55 95.19 9.34
7671 17.3420 94.46 98.37 9.12
7672 17.3440 95.85 103.17 9.19
7673 17.3460 114.21 110.57 10.04
7674 17.3480 108.23 121.82 9.71
7675 17.3500 108.04 138.19 9.69
7676 17.3520 140.98 160.01 11.07
7677 17.3540 172.77 185.01 12.31
7678 17.3560 249.51 205.07 14.81
7679 17.3580 263.07 207.93 15.16
7680 17.3600 231.61 191.40 14.23
7681 17.3620 180.13 166.64 12.52
7682 17.3640 139.96 143.55 11.06
7683 17.3660 114.39 125.74 9.96
7684 17.3680 111.51 113.21 9.78
7685 17.3700 96.11 104.92 9.23
7686 17.3720 104.11 99.56 9.54
7687 17.3740 110.13 96.05 9.73
7688 17.3760 99.60 93.65 9.36
7689 17.3780 83.31 91.93 8.56
7690 17.3800 80.19 90.65 8.34
7691 17.3820 83.37 89.65 8.50
7692 17.3840 87.85 88.87 8.72
7693 17.3860 94.60 88.25 9.06
7694 17.3880 92.88 87.76 8.96
7695 17.3900 86.40 87.36 8.67
7696 17.3920 98.89 87.05 9.26
7697 17.3940 84.76 86.80 8.63
7698 17.3960 89.81 86.61 8.80
7699 17.3980 79.37 86.47 8.39
7700 17.4000 94.14 86.37 9.13
7701 17.4020 92.00 86.32 8.87
7702 17.4040 75.98 86.31 8.09
7703 17.4060 79.96 86.34 8.38
7704 17.4080 81.29 86.41 8.48
7705 17.4100 92.20 86.52 8.97
7706 17.4120 89.15 86.69 8.82
7707 17.4140 94.80 86.91 9.05
7708 17.4160 101.79 87.19 9.38
7709 17.4180 103.59 87.55 9.51
7710 17.4200 103.13 88.01 9.45
7711 17.4220 86.88 88.58 8.68
7712 17.4240 84.99 89.30 8.59
7713 17.4260 104.11 90.22 9.44
7714 17.4280 93.28 91.41 8.93
7715 17.4300 91.10 92.98 8.89
7716 17.4320 100.23 95.15 9.39
7717 17.4340 101.06 98.29 9.42
7718 17.4360 111.96 103.04 9.87
7719 17.4380 106.47 110.33 9.66
7720 17.4400 99.92 121.36 9.37
7721 17.4420 124.13 137.18 10.31
7722 17.4440 136.15 157.99 10.83
7723 17.4460 145.10 181.20 11.15
7724 17.4480 160.78 198.83 11.71
7725 17.4500 227.08 199.94 13.98
7726 17.4520 287.59 184.13 15.84
7727 17.4540 265.63 162.05 15.39
7728 17.4560 235.05 142.40 14.54
7729 17.4580 170.40 128.23 12.40
7730 17.4600 151.35 119.86 11.58
7731 17.4620 126.00 116.78 10.62
7732 17.4640 124.90 118.36 10.45
7733 17.4660 115.35 123.98 10.00
7734 17.4680 112.78 132.51 9.90
7735 17.4700 148.65 140.97 11.30
7736 17.4720 158.02 143.99 11.66
7737 17.4740 143.85 138.32 11.13
7738 17.4760 139.91 127.32 11.10
7739 17.4780 141.62 116.01 11.32
7740 17.4800 126.36 106.79 10.72
7741 17.4820 114.39 100.05 10.08
7742 17.4840 103.05 95.42 9.57
7743 17.4860 104.70 92.31 9.61
7744 17.4880 100.58 90.22 9.42
7745 17.4900 77.58 88.75 8.30
7746 17.4920 92.86 87.67 8.93
7747 17.4940 84.23 86.84 8.57
7748 17.4960 97.74 86.17 9.19
7749 17.4980 85.69 85.62 8.69
7750 17.5000 89.04 85.16 8.84
7751 17.5020 88.68 84.78 8.88
7752 17.5040 92.33 84.45 9.03
7753 17.5060 88.07 84.16 8.69
7754 17.5080 73.15 83.91 7.95
7755 17.5100 71.67 83.69 7.87
7756 17.5120 60.34 83.49 7.26
7757 17.5140 82.50 83.32 8.44
7758 17.5160 94.87 83.16 9.08
7759 17.5180 82.45 83.02 8.47
7760 17.5200 79.33 82.89 8.23
7761 17.5220 67.54 82.77 7.68
7762 17.5240 92.29 82.66 8.89
7763 17.5260 79.96 82.55 8.30
7764 17.5280 76.27 82.46 8.17
7765 17.5300 85.82 82.37 8.68
7766 17.5320 83.03 82.29 8.58
7767 17.5340 83.94 82.21 8.58
7768 17.5360 85.86 82.14 8.70
7769 17.5380 89.35 82.07 8.87
7770 17.5400 76.81 82.01 8.17
7771 17.5420 79.76 81.95 8.34
7772 17.5440 88.31 81.89 8.76
7773 17.5460 79.11 81.83 8.29
7774 17.5480 79.51 81.78 8.33
7775 17.5500 84.86 81.73 8.49
7776 17.5520 80.70 81.68 8.30
7777 17.5540 79.44 81.64 8.37
7778 17.5560 83.04 81.59 8.62
7779 17.5580 87.10 81.55 8.75
7780 17.5600 88.66 81.51 8.76
7781 17.5620 77.84 81.49 8.20
7782 17.5640 78.78 81.46 8.26
7783 17.5660 78.58 81.42 8.25
7784 17.5680 76.14 81.38 8.14
7785 17.5700 79.87 81.35 8.36
7786 17.5720 92.55 81.32 8.96
7787 17.5740 72.67 81.29 8.04
7788 17.5760 73.13 81.26 8.06
7789 17.5780 91.23 81.24 8.88
7790 17.5800 81.67 81.21 8.44
7791 17.5820 85.40 81.19 8.56
7792 17.5840 75.32 81.17 8.10
7793 17.5860 72.58 81.15 7.91
7794 17.5880 86.00 81.13 8.58
7795 17.5900 84.20 81.12 8.60
7796 17.5920 86.95 81.12 8.73
7797 17.5940 88.29 81.12 8.86
7798 17.5960 83.33 81.12 8.56
7799 17.5980 79.26 81.14 8.32
7800 17.6000 76.81 81.19 8.21
7801 17.6020 76.76 81.24 8.18
7802 17.6040 79.80 81.32 8.32
7803 17.6060 70.59 81.46 7.87
7804 17.6080 88.30 81.68 8.69
7805 17.6100 92.71 82.03 8.98
7806 17.6120 76.08 82.57 8.14
7807 17.6140 82.01 83.32 8.38
7808 17.6160 80.47 84.20 8.39
7809 17.6180 96.59 85.10 9.14
7810 17.6200 94.48 85.54 9.07
7811 17.6220 86.68 85.19 8.70
7812 17.6240 97.69 84.28 9.20
7813 17.6260 83.10 83.28 8.52
7814 17.6280 81.49 82.44 8.38
7815 17.6300 74.95 81.82 8.07
7816 17.6320 74.76 81.38 8.06
7817 17.6340 83.94 81.09 8.50
7818 17.6360 83.57 80.90 8.50
7819 17.6380 80.01 80.76 8.35
7820 17.6400 64.70 80.65 7.58
7821 17.6420 74.04 80.57 8.06
7822 17.6440 88.63 80.50 8.85
7823 17.6460 80.38 80.45 8.33
7824 17.6480 74.28 80.40 7.99
7825 17.6500 81.21 80.35 8.43
7826 17.6520 90.54 80.31 8.98
7827 17.6540 85.51 80.28 8.68
7828 17.6560 78.24 80.25 8.34
7829 17.6580 84.21 80.22 8.61
7830 17.6600 82.48 80.20 8.51
7831 17.6620 87.81 80.18 8.76
7832 17.6640 85.91 80.16 8.65
7833 17.6660 78.12 80.15 8.25
7834 17.6680 72.81 80.16 7.99
7835 17.6700 71.87 80.17 7.97
7836 17.6720 72.42 80.22 8.00
7837 17.6740 78.42 80.28 8.32
7838 17.6760 78.68 80.38 8.37
7839 17.6780 82.67 80.47 8.59
7840 17.6800 78.91 80.53 8.39
7841 17.6820 80.57 80.48 8.43
7842 17.6840 73.84 80.36 8.06
7843 17.6860 81.67 80.21 8.37
7844 17.6880 86.14 80.09 8.62
7845 17.6900 88.67 79.99 8.87
7846 17.6920 91.54 79.91 8.95
7847 17.6940 84.24 79.86 8.55
7848 17.6960 88.64 79.82 8.80
7849 17.6980 85.71 79.78 8.67
7850 17.7000 77.92 79.75 8.24
7851 17.7020 85.37 79.73 8.61
7852 17.7040 89.34 79.70 8.88
7853 17.7060 83.29 79.68 8.61
7854 17.7080 85.46 79.66 8.58
7855 17.7100 73.40 79.59 7.97
7856 17.7120 82.26 79.57 8.46
7857 17.7140 80.63 79.55 8.50
7858 17.7160 76.65 79.54 8.10
7859 17.7180 71.83 79.52 7.86
7860 17.7200 89.34 79.51 8.79
7861 17.7220 77.96 79.49 8.23
7862 17.7240 63.44 79.48 7.36
7863 17.7260 76.68 79.47 8.05
7864 17.7280 72.45 79.46 7.95
7865 17.7300 69.50 79.44 7.78
7866 17.7320 79.46 79.41 8.28
7867 17.7340 67.34 79.40 7.70
7868 17.7360 81.44 79.39 8.41
7869 17.7380 86.17 79.38 8.64
7870 17.7400 86.08 79.37 8.68
7871 17.7420 90.30 79.37 8.91
7872 17.7440 86.63 79.36 8.72
7873 17.7460 76.75 79.36 8.10
7874 17.7480 74.50 79.35 8.00
7875 17.7500 79.52 79.35 8.34
7876 17.7520 103.04 79.35 9.43
7877 17.7540 84.24 79.35 8.66
7878 17.7560 80.99 79.35 8.45
7879 17.7580 86.61 79.36 8.73
7880 17.7600 72.36 79.36 7.89
7881 17.7620 70.11 79.37 7.78
7882 17.7640 77.88 79.38 8.28
7883 17.7660 75.04 79.40 8.14
7884 17.7680 69.69 79.41 7.84
7885 17.7700 86.56 79.44 8.67
7886 17.7720 68.82 79.46 7.84
7887 17.7740 73.81 79.49 8.05
7888 17.7760 81.77 79.52 8.43
7889 17.7780 80.40 79.56 8.35
7890 17.7800 81.38 79.61 8.43
7891 17.7820 98.87 79.67 9.25
7892 17.7840 80.50 79.73 8.48
7893 17.7860 81.30 79.81 8.44
7894 17.7880 79.24 79.90 8.36
7895 17.7900 83.70 80.01 8.61
7896 17.7920 80.95 80.14 8.44
7897 17.7940 86.65 80.29 8.71
7898 17.7960 76.95 80.47 8.15
7899 17.7980 78.45 80.70 8.20
7900 17.8000 69.43 80.97 7.81
7901 17.8020 80.09 81.31 8.21
7902 17.8040 79.22 81.73 8.17
7903 17.8060 92.17 82.26 8.84
7904 17.8080 91.13 82.98 8.86
7905 17.8100 87.73 83.96 8.75
7906 17.8120 72.26 85.38 7.96
7907 17.8140 84.76 87.52 8.58
7908 17.8160 88.75 90.79 8.81
7909 17.8180 102.78 95.68 9.39
7910 17.8200 95.76 102.61 9.13
7911 17.8220 84.50 111.62 8.59
7912 17.8240 88.75 121.54 8.77
7913 17.8260 117.62 129.00 10.07
7914 17.8280 150.04 129.48 11.45
7915 17.8300 157.34 122.68 11.75
7916 17.8320 129.24 112.96 10.75
7917 17.8340 108.18 103.97 9.71
7918 17.8360 98.65 97.02 9.27
7919 17.8380 99.31 92.19 9.40
7920 17.8400 111.11 89.06 9.81
7921 17.8420 105.32 87.17 9.54
7922 17.8440 92.19 86.13 8.98
7923 17.8460 71.94 85.70 8.01
7924 17.8480 83.20 85.79 8.55
7925 17.8500 86.29 86.45 8.67
7926 17.8520 91.51 87.86 8.91
7927 17.8540 94.39 90.34 9.11
7928 17.8560 79.33 94.22 8.34
7929 17.8580 95.14 99.73 9.05
7930 17.8600 88.89 106.68 8.84
7931 17.8620 89.99 113.71 8.85
7932 17.8640 106.97 117.67 9.58
7933 17.8660 122.52 115.79 10.24
7934 17.8680 124.11 109.33 10.35
7935 17.8700 128.38 101.78 10.59
7936 17.8720 124.21 95.27 10.45
7937 17.8740 122.32 90.35 10.41
7938 17.8760 106.90 86.92 9.75
7939 17.8780 101.90 84.63 9.45
7940 17.8800 91.32 83.11 8.89
7941 17.8820 74.97 82.08 8.11
7942 17.8840 93.70 81.35 8.99
7943 17.8860 74.65 80.80 8.14
7944 17.8880 93.38 80.38 9.02
7945 17.8900 79.59 80.04 8.42
7946 17.8920 80.74 79.76 8.38
7947 17.8940 79.29 79.53 8.26
7948 17.8960 75.06 79.33 8.08
7949 17.8980 79.09 79.16 8.32
7950 17.9000 77.60 79.02 8.23
7951 17.9020 78.62 78.89 8.28
7952 17.9040 86.21 78.78 8.60
7953 17.9060 76.36 78.68 8.11
7954 17.9080 72.89 78.59 8.01
7955 17.9100 82.21 78.51 8.45
7956 17.9120 82.92 78.44 8.48
7957 17.9140 69.35 78.37 7.73
7958 17.9160 69.54 78.31 7.71
7959 17.9180 77.54 78.26 8.14
7960 17.9200 82.27 78.20 8.40
7961 17.9220 73.42 78.16 7.99
7962 17.9240 72.45 78.11 7.93
7963 17.9260 75.38 78.07 8.12
7964 17.9280 76.54 78.03 8.23
7965 17.9300 70.56 77.99 7.83
7966 17.9320 69.55 77.96 7.74
7967 17.9340 72.22 77.93 7.94
7968 17.9360 79.81 77.90 8.32
7969 17.9380 76.80 77.87 8.22
7970 17.9400 78.71 77.84 8.31
7971 17.9420 88.12 77.81 8.74
7972 17.9440 80.98 77.79 8.37
7973 17.9460 70.77 77.77 7.82
7974 17.9480 70.73 77.74 7.83
7975 17.9500 69.71 77.72 7.78
7976 17.9520 73.55 77.70 8.03
7977 17.9540 79.89 77.69 8.35
7978 17.9560 84.39 77.67 8.53
7979 17.9580 72.40 77.66 7.92
7980 17.9600 73.95 77.65 8.01
7981 17.9620 76.98 77.64 8.06
7982 17.9640 65.91 77.64 7.48
7983 17.9660 81.93 77.64 8.34
7984 17.9680 77.44 77.66 8.18
7985 17.9700 76.08 77.70 8.08
7986 17.9720 73.34 77.76 7.96
7987 17.9740 80.63 77.85 8.34
7988 17.9760 81.83 77.96 8.42
7989 17.9780 74.09 78.06 7.98
7990 17.9800 71.25 78.09 7.86
7991 17.9820 75.65 78.03 8.14
7992 17.9840 81.03 77.90 8.35
7993 17.9860 73.00 77.76 7.96
7994 17.9880 84.88 77.64 8.59
7995 17.9900 79.50 77.56 8.31
7996 17.9920 79.93 77.49 8.27
7997 17.9940 75.46 77.45 8.09
7998 17.9960 76.54 77.42 8.16
7999 17.9980 78.56 77.39 8.23
8000 18.0000 75.55 77.37 8.15
8001 18.0020 85.57 77.36 8.62
8002 18.0040 81.42 77.34 8.36
8003 18.0060 87.91 77.33 8.77
8004 18.0080 88.26 77.32 8.81
8005 18.0100 79.76 77.31 8.33
8006 18.0120 91.25 77.31 8.89
8007 18.0140 76.07 77.30 8.22
8008 18.0160 73.86 77.30 7.94
8009 18.0180 73.68 77.30 8.02
8010 18.0200 83.47 77.30 8.56
8011 18.0220 79.37 77.30 8.24
8012 18.0240 83.18 77.30 8.48
8013 18.0260 89.62 77.31 8.82
8014 18.0280 78.78 77.32 8.23
8015 18.0300 81.65 77.33 8.45
8016 18.0320 93.06 77.35 9.06
8017 18.0340 73.78 77.37 8.04
8018 18.0360 73.71 77.40 7.98
8019 18.0380 78.69 77.43 8.24
8020 18.0400 87.63 77.48 8.75
8021 18.0420 85.53 77.53 8.70
8022 18.0440 70.19 77.60 7.92
8023 18.0460 78.56 77.69 8.22
8024 18.0480 80.15 77.80 8.40
8025 18.0500 76.73 77.96 8.12
8026 18.0520 97.28 78.18 9.13
8027 18.0540 88.09 78.50 8.79
8028 18.0560 80.57 78.99 8.35
8029 18.0580 86.07 79.73 8.65
8030 18.0600 92.43 80.82 9.00
8031 18.0620 88.57 82.33 8.80
8032 18.0640 76.31 84.22 8.09
8033 18.0660 86.21 86.18 8.72
8034 18.0680 76.73 87.42 8.13
8035 18.0700 80.08 87.17 8.30
8036 18.0720 99.01 85.63 9.25
8037 18.0740 85.58 83.73 8.59
8038 18.0760 92.25 82.05 8.94
8039 18.0780 82.60 80.82 8.58
8040 18.0800 79.68 80.02 8.27
8041 18.0820 82.87 79.60 8.45
8042 18.0840 93.50 79.50 9.03
8043 18.0860 85.19 79.72 8.62
8044 18.0880 90.18 80.27 8.95
8045 18.0900 87.53 81.21 8.81
8046 18.0920 86.25 82.58 8.73
8047 18.0940 89.83 84.24 8.78
8048 18.0960 91.51 85.86 8.91
8049 18.0980 90.49 86.60 8.88
8050 18.1000 73.56 85.92 7.96
8051 18.1020 84.30 84.25 8.55
8052 18.1040 72.90 82.41 7.91
8053 18.1060 89.61 80.85 8.80
8054 18.1080 76.45 79.69 8.17
8055 18.1100 69.80 78.87 7.78
8056 18.1120 79.16 78.32 8.32
8057 18.1140 76.02 77.95 8.18
8058 18.1160 82.62 77.70 8.50
8059 18.1180 71.73 77.52 7.86
8060 18.1200 59.34 77.39 7.11
8061 18.1220 77.51 77.28 8.09
8062 18.1240 83.34 77.19 8.50
8063 18.1260 74.95 77.12 8.10
8064 18.1280 67.95 77.06 7.67
8065 18.1300 80.93 77.01 8.46
8066 18.1320 77.95 76.95 8.17
8067 18.1340 80.32 76.91 8.29
8068 18.1360 84.60 76.88 8.57
8069 18.1380 84.25 76.85 8.58
8070 18.1400 75.43 76.83 8.07
8071 18.1420 81.92 76.80 8.40
8072 18.1440 75.43 76.78 8.10
8073 18.1460 71.79 76.76 7.85
8074 18.1480 66.75 76.75 7.54
8075 18.1500 75.90 76.73 8.07
8076 18.1520 84.82 76.72 8.54
8077 18.1540 85.35 76.70 8.61
8078 18.1560 77.33 76.69 8.16
8079 18.1580 76.82 76.68 8.15
8080 18.1600 77.47 76.67 8.17
8081 18.1620 76.87 76.66 8.14
8082 18.1640 70.59 76.65 7.82
8083 18.1660 85.11 76.64 8.50
8084 18.1680 64.53 76.63 7.40
8085 18.1700 69.45 76.62 7.74
8086 18.1720 82.31 76.62 8.51
8087 18.1740 87.62 76.61 8.69
8088 18.1760 92.95 76.60 9.02
8089 18.1780 76.30 76.60 8.22
8090 18.1800 78.15 76.59 8.24
8091 18.1820 92.01 76.59 8.93
8092 18.1840 66.93 76.58 7.58
8093 18.1860 81.65 76.58 8.41
8094 18.1880 76.17 76.57 8.12
8095 18.1900 78.21 76.57 8.24
8096 18.1920 86.93 76.56 8.75
8097 18.1940 82.46 76.56 8.45
8098 18.1960 92.40 76.56 8.97
8099 18.1980 77.23 76.55 8.09
8100 18.2000 67.74 76.55 7.58
8101 18.2020 70.15 76.55 7.81
8102 18.2040 68.37 76.54 7.72
8103 18.2060 83.72 76.54 8.48
8104 18.2080 87.47 76.54 8.77
8105 18.2100 73.93 76.54 7.93
8106 18.2120 89.36 76.53 8.79
8107 18.2140 72.69 76.53 7.94
8108 18.2160 101.26 76.53 9.40
8109 18.2180 72.63 76.53 7.90
8110 18.2200 83.31 76.53 8.48
8111 18.2220 82.72 76.53 8.49
8112 18.2240 70.42 76.53 7.82
8113 18.2260 81.51 76.52 8.34
8114 18.2280 80.40 76.52 8.33
8115 18.2300 75.87 76.52 8.13
8116 18.2320 77.51 76.52 8.20
8117 18.2340 81.47 76.52 8.35
8118 18.2360 80.56 76.52 8.42
8119 18.2380 88.10 76.52 8.77
8120 18.2400 73.35 76.52 7.99
8121 18.2420 76.65 76.52 8.13
8122 18.2440 83.25 76.52 8.57
8123 18.2460 70.65 76.52 7.80
8124 18.2480 74.95 76.52 8.07
8125 18.2500 79.38 76.52 8.27
8126 18.2520 80.96 76.52 8.32
8127 18.2540 86.07 76.52 8.65
8128 18.2560 83.18 76.52 8.41
8129 18.2580 73.85 76.52 7.99
8130 18.2600 78.70 76.52 8.21
8131 18.2620 72.40 76.52 7.97
8132 18.2640 73.92 76.52 7.96
8133 18.2660 80.11 76.52 8.32
8134 18.2680 78.41 76.53 8.21
8135 18.2700 76.81 76.53 8.05
8136 18.2720 55.55 76.53 6.97
8137 18.2740 63.42 76.53 7.45
8138 18.2760 67.99 76.53 7.67
8139 18.2780 60.65 76.53 7.21
8140 18.2800 88.90 76.53 8.82
8141 18.2820 87.10 76.54 8.77
8142 18.2840 71.14 76.54 7.91
8143 18.2860 81.82 76.54 8.41
8144 18.2880 80.75 76.54 8.37
8145 18.2900 70.00 76.55 7.78
8146 18.2920 73.46 76.55 8.02
8147 18.2940 65.05 76.55 7.39
8148 18.2960 73.93 76.55 7.97
8149 18.2980 81.04 76.56 8.41
8150 18.3000 86.60 76.56 8.55
8151 18.3020 90.90 76.56 8.85
8152 18.3040 88.43 76.56 8.73
8153 18.3060 86.55 76.57 8.61
8154 18.3080 68.51 76.60 7.71
8155 18.3100 96.55 76.60 9.18
8156 18.3120 81.73 76.61 8.44
8157 18.3140 65.16 76.61 7.54
8158 18.3160 75.24 76.61 8.11
8159 18.3180 62.53 76.62 7.39
8160 18.3200 68.04 76.62 7.68
8161 18.3220 75.33 76.63 8.08
8162 18.3240 92.65 76.63 9.00
8163 18.3260 86.17 76.63 8.72
8164 18.3280 67.49 76.64 7.69
8165 18.3300 76.73 76.64 8.14
8166 18.3320 61.15 76.65 7.23
8167 18.3340 80.14 76.65 8.27
8168 18.3360 68.24 76.66 7.62
8169 18.3380 89.72 76.66 8.84
8170 18.3400 93.21 76.66 8.99
8171 18.3420 72.21 76.67 7.84
8172 18.3440 75.24 76.67 8.10
8173 18.3460 78.41 76.68 8.26
8174 18.3480 70.00 76.69 7.83
8175 18.3500 81.36 76.69 8.40
8176 18.3520 69.58 76.70 7.77
8177 18.3540 71.33 76.70 7.81
8178 18.3560 83.25 76.71 8.56
8179 18.3580 71.88 76.72 7.85
8180 18.3600 72.22 76.72 7.91
8181 18.3620 64.86 76.73 7.50
8182 18.3640 76.08 76.73 8.10
8183 18.3660 86.70 76.74 8.74
8184 18.3680 90.68 76.74 8.87
8185 18.3700 88.41 76.75 8.77
8186 18.3720 88.19 76.76 8.76
8187 18.3740 80.11 76.76 8.26
8188 18.3760 74.37 76.77 8.05
8189 18.3780 81.22 76.78 8.40
8190 18.3800 88.16 76.79 8.71
8191 18.3820 79.53 76.79 8.19
8192 18.3840 60.57 76.80 7.20
8193 18.3860 83.69 76.81 8.48
8194 18.3880 80.88 76.82 8.40
8195 18.3900 81.81 76.83 8.44
8196 18.3920 82.14 76.87 8.42
8197 18.3940 84.60 76.88 8.52
8198 18.3960 72.01 76.89 7.90
8199 18.3980 86.09 76.90 8.63
8200 18.4000 68.03 76.91 7.63
8201 18.4020 76.57 76.92 8.16
8202 18.4040 83.11 76.93 8.54
8203 18.4060 79.81 76.94 8.33
8204 18.4080 80.55 76.95 8.38
8205 18.4100 88.57 76.96 8.75
8206 18.4120 87.28 76.97 8.73
8207 18.4140 77.37 76.98 8.19
8208 18.4160 77.60 77.00 8.11
8209 18.4180 61.32 77.01 7.25
8210 18.4200 70.43 77.03 7.82
8211 18.4220 82.72 77.05 8.44
8212 18.4240 79.19 77.07 8.36
8213 18.4260 74.03 77.09 8.06
8214 18.4280 70.43 77.12 7.91
8215 18.4300 78.21 77.16 8.18
8216 18.4320 85.47 77.19 8.57
8217 18.4340 82.93 77.22 8.47
8218 18.4360 85.50 77.23 8.58
8219 18.4380 82.10 77.23 8.50
8220 18.4400 56.47 77.22 6.95
8221 18.4420 93.30 77.22 9.04
8222 18.4440 79.59 77.22 8.35
8223 18.4460 79.61 77.23 8.36
8224 18.4480 75.90 77.25 8.14
8225 18.4500 72.78 77.26 7.85
8226 18.4520 88.63 77.28 8.80
8227 18.4540 74.19 77.31 8.08
8228 18.4560 75.19 77.33 8.04
8229 18.4580 83.85 77.36 8.50
8230 18.4600 94.27 77.40 9.06
8231 18.4620 76.31 77.44 8.14
8232 18.4640 78.49 77.48 8.27
8233 18.4660 95.33 77.53 9.13
8234 18.4680 81.66 77.59 8.36
8235 18.4700 65.96 77.66 7.54
8236 18.4720 86.99 77.75 8.71
8237 18.4740 77.41 77.86 8.24
8238 18.4760 77.29 78.02 8.12
8239 18.4780 101.05 78.24 9.36
8240 18.4800 72.11 78.57 7.87
8241 18.4820 84.47 79.05 8.50
8242 18.4840 72.53 79.74 7.87
8243 18.4860 75.81 80.65 8.10
8244 18.4880 71.82 81.74 7.86
8245 18.4900 84.45 82.76 8.67
8246 18.4920 79.24 83.28 8.27
8247 18.4940 91.00 82.95 8.84
8248 18.4960 86.54 82.02 8.76
8249 18.4980 67.54 80.97 7.67
8250 18.5000 75.01 80.07 8.08
8251 18.5020 75.11 79.39 8.05
8252 18.5040 66.76 78.92 7.59
8253 18.5060 71.33 78.61 7.81
8254 18.5080 90.59 78.42 8.80
8255 18.5100 83.15 78.31 8.48
8256 18.5120 78.61 78.24 8.28
8257 18.5140 92.37 78.20 8.90
8258 18.5160 94.97 78.18 9.09
8259 18.5180 91.24 78.18 8.98
8260 18.5200 77.57 78.19 8.19
8261 18.5220 78.38 78.21 8.27
8262 18.5240 75.43 78.24 8.05
8263 18.5260 73.33 78.28 7.94
8264 18.5280 69.92 78.32 7.81
8265 18.5300 82.35 78.38 8.40
8266 18.5320 74.38 78.44 7.99
8267 18.5340 95.50 78.52 9.05
8268 18.5360 84.27 78.60 8.60
8269 18.5380 88.18 78.70 8.77
8270 18.5400 80.08 78.81 8.35
8271 18.5420 70.99 78.94 7.85
8272 18.5440 82.51 79.08 8.51
8273 18.5460 74.15 79.25 8.10
8274 18.5480 78.95 79.45 8.28
8275 18.5500 68.27 79.68 7.73
8276 18.5520 78.91 79.96 8.27
8277 18.5540 86.78 80.28 8.71
8278 18.5560 98.92 80.68 9.19
8279 18.5580 68.49 81.17 7.70
8280 18.5600 91.50 81.79 8.86
8281 18.5620 82.40 82.58 8.47
8282 18.5640 79.13 83.65 8.30
8283 18.5660 67.23 85.15 7.59
8284 18.5680 87.38 87.37 8.76
8285 18.5700 77.51 90.70 8.10
8286 18.5720 96.47 95.67 9.00
8287 18.5740 103.18 102.81 9.40
8288 18.5760 93.55 112.40 9.04
8289 18.5780 113.49 123.94 9.94
8290 18.5800 136.52 135.16 10.82
8291 18.5820 140.40 141.23 10.99
8292 18.5840 115.56 138.29 9.96
8293 18.5860 107.63 128.36 9.62
8294 18.5880 94.70 116.58 9.09
8295 18.5900 114.97 106.20 9.95
8296 18.5920 95.60 98.25 9.12
8297 18.5940 97.34 92.59 9.16
8298 18.5960 97.79 88.78 9.13
8299 18.5980 93.13 86.28 9.01
8300 18.6000 92.89 84.61 8.97
8301 18.6020 80.03 83.47 8.39
8302 18.6040 89.78 82.65 8.80
8303 18.6060 67.97 82.05 7.68
8304 18.6080 72.23 81.59 7.91
8305 18.6100 66.95 81.23 7.59
8306 18.6120 78.99 80.96 8.28
8307 18.6140 82.96 80.75 8.50
8308 18.6160 89.23 80.60 8.82
8309 18.6180 88.65 80.49 8.83
8310 18.6200 88.53 80.41 8.79
8311 18.6220 83.40 80.38 8.50
8312 18.6240 67.00 80.37 7.71
8313 18.6260 81.93 80.40 8.45
8314 18.6280 71.46 80.46 7.87
8315 18.6300 76.75 80.55 8.07
8316 18.6320 98.14 80.68 9.21
8317 18.6340 88.21 80.86 8.80
8318 18.6360 92.60 81.08 8.92
8319 18.6380 81.44 81.36 8.38
8320 18.6400 75.11 81.70 8.02
8321 18.6420 75.01 82.14 8.06
8322 18.6440 83.52 82.69 8.51
8323 18.6460 80.37 83.40 8.35
8324 18.6480 90.11 84.34 8.83
8325 18.6500 82.25 85.61 8.41
8326 18.6520 93.45 87.42 8.99
8327 18.6540 101.44 90.11 9.46
8328 18.6560 104.08 94.17 9.51
8329 18.6580 112.77 100.24 10.01
8330 18.6600 103.18 108.93 9.51
8331 18.6620 111.31 120.57 9.91
8332 18.6640 142.52 134.51 11.17
8333 18.6660 170.19 147.95 12.29
8334 18.6680 135.91 155.07 10.85
8335 18.6700 144.20 151.34 11.09
8336 18.6720 135.43 139.26 10.60
8337 18.6740 115.26 125.01 9.88
8338 18.6760 116.35 112.44 9.99
8339 18.6780 97.21 102.77 9.16
8340 18.6800 88.51 95.88 8.81
8341 18.6820 96.42 91.22 9.03
8342 18.6840 99.82 88.12 9.17
8343 18.6860 90.84 86.04 8.94
8344 18.6880 70.66 84.60 7.82
8345 18.6900 88.49 83.55 8.72
8346 18.6920 79.50 82.76 8.25
8347 18.6940 66.63 82.15 7.51
8348 18.6960 76.53 81.64 8.11
8349 18.6980 77.42 81.24 8.13
8350 18.7000 65.02 80.90 7.50
8351 18.7020 79.57 80.62 8.33
8352 18.7040 91.83 80.38 8.87
8353 18.7060 76.37 80.18 8.16
8354 18.7080 92.07 80.01 8.87
8355 18.7100 69.44 79.86 7.74
8356 18.7120 76.36 79.74 8.13
8357 18.7140 91.37 79.63 8.90
8358 18.7160 77.54 79.53 8.24
8359 18.7180 83.17 79.45 8.48
8360 18.7200 79.53 79.37 8.39
8361 18.7220 74.56 79.31 7.99
8362 18.7240 79.26 79.25 8.26
8363 18.7260 81.20 79.20 8.35
8364 18.7280 66.51 79.16 7.49
8365 18.7300 87.42 79.12 8.61
8366 18.7320 90.26 79.08 8.74
8367 18.7340 76.34 79.05 8.01
8368 18.7360 67.88 79.02 7.66
8369 18.7380 85.64 79.00 8.60
8370 18.7400 80.85 78.98 8.50
8371 18.7420 72.15 78.97 7.95
8372 18.7440 85.60 78.96 8.57
8373 18.7460 75.25 78.95 8.11
8374 18.7480 68.33 78.94 7.73
8375 18.7500 93.07 78.93 9.00
8376 18.7520 80.60 78.93 8.32
8377 18.7540 70.44 78.93 7.78
8378 18.7560 81.46 78.94 8.32
8379 18.7580 93.77 78.95 8.92
8380 18.7600 93.13 78.96 8.94
8381 18.7620 90.86 78.99 8.84
8382 18.7640 80.82 79.04 8.41
8383 18.7660 76.58 79.11 8.16
8384 18.7680 94.81 79.21 8.95
8385 18.7700 67.74 79.38 7.71
8386 18.7720 78.75 79.60 8.23
8387 18.7740 79.54 79.88 8.31
8388 18.7760 89.58 80.18 8.81
8389 18.7780 88.31 80.39 8.80
8390 18.7800 86.48 80.40 8.68
8391 18.7820 82.55 80.19 8.48
8392 18.7840 81.21 79.89 8.39
8393 18.7860 84.01 79.60 8.62
8394 18.7880 93.72 79.38 9.02
8395 18.7900 69.08 79.21 7.65
8396 18.7920 65.38 79.10 7.54
8397 18.7940 77.44 79.02 8.12
8398 18.7960 89.26 78.97 8.74
8399 18.7980 84.40 78.94 8.53
8400 18.8000 76.00 78.92 8.16
8401 18.8020 72.03 78.90 7.84
8402 18.8040 78.85 78.90 8.27
8403 18.8060 79.55 78.89 8.34
8404 18.8080 69.04 78.88 7.76
8405 18.8100 72.60 78.88 7.96
8406 18.8120 78.91 78.88 8.35
8407 18.8140 89.81 78.88 8.80
8408 18.8160 85.86 78.88 8.69
8409 18.8180 90.98 78.88 8.87
8410 18.8200 73.53 78.88 7.98
8411 18.8220 74.06 78.88 8.02
8412 18.8240 76.51 78.88 8.05
8413 18.8260 70.42 78.89 7.72
8414 18.8280 74.39 78.89 8.02
8415 18.8300 77.93 78.90 8.22
8416 18.8320 78.57 78.90 8.28
8417 18.8340 80.91 78.91 8.39
8418 18.8360 83.00 78.92 8.48
8419 18.8380 72.38 78.93 7.91
8420 18.8400 73.90 78.94 8.01
8421 18.8420 95.82 78.95 9.10
8422 18.8440 78.11 78.96 8.25
8423 18.8460 85.88 78.98 8.62
8424 18.8480 68.92 79.00 7.75
8425 18.8500 91.33 79.04 8.91
8426 18.8520 83.07 79.09 8.45
8427 18.8540 83.70 79.15 8.55
8428 18.8560 71.76 79.25 7.85
8429 18.8580 80.33 79.37 8.37
8430 18.8600 61.62 79.48 7.36
8431 18.8620 68.43 79.62 7.63
8432 18.8640 74.86 79.68 8.00
8433 18.8660 81.10 79.64 8.28
8434 18.8680 73.05 79.53 7.96
8435 18.8700 77.23 79.40 8.20
8436 18.8720 86.45 79.29 8.66
8437 18.8740 74.78 79.21 8.06
8438 18.8760 88.07 79.15 8.71
8439 18.8780 83.49 79.12 8.55
8440 18.8800 63.12 79.10 7.31
8441 18.8820 82.07 79.09 8.48
8442 18.8840 89.10 79.09 8.77
8443 18.8860 83.37 79.10 8.50
8444 18.8880 76.03 79.11 8.07
8445 18.8900 86.11 79.12 8.69
8446 18.8920 78.83 79.14 8.30
8447 18.8940 80.24 79.16 8.30
8448 18.8960 77.83 79.20 8.23
8449 18.8980 84.84 79.25 8.58
8450 18.9000 72.61 79.33 7.89
8451 18.9020 82.66 79.43 8.46
8452 18.9040 80.09 79.56 8.33
8453 18.9060 87.17 79.72 8.69
8454 18.9080 76.16 79.87 8.16
8455 18.9100 78.92 79.96 8.30
8456 18.9120 73.33 79.93 7.96
8457 18.9140 73.62 79.83 7.98
8458 18.9160 66.90 79.70 7.61
8459 18.9180 81.58 79.59 8.41
8460 18.9200 84.63 79.51 8.52
8461 18.9220 84.40 79.47 8.57
8462 18.9240 87.67 79.45 8.75
8463 18.9260 83.23 79.44 8.50
8464 18.9280 85.42 79.46 8.62
8465 18.9300 78.79 79.48 8.24
8466 18.9320 87.18 79.52 8.74
8467 18.9340 83.01 79.56 8.43
8468 18.9360 84.63 79.61 8.52
8469 18.9380 74.26 79.67 8.03
8470 18.9400 76.01 79.75 8.03
8471 18.9420 64.26 79.83 7.43
8472 18.9440 83.72 79.94 8.53
8473 18.9460 89.67 80.03 8.86
8474 18.9480 83.84 80.19 8.52
8475 18.9500 73.23 80.38 7.98
8476 18.9520 75.78 80.63 8.06
8477 18.9540 71.13 80.95 7.84
8478 18.9560 76.46 81.39 8.13
8479 18.9580 72.55 82.02 7.99
8480 18.9600 78.47 82.96 8.29
8481 18.9620 73.16 84.36 7.93
8482 18.9640 87.80 86.40 8.73
8483 18.9660 81.29 89.24 8.39
8484 18.9680 94.25 92.91 9.10
8485 18.9700 92.64 97.05 9.03
8486 18.9720 98.91 100.59 9.30
8487 18.9740 113.50 101.79 9.94
8488 18.9760 90.48 99.88 8.81
8489 18.9780 110.03 96.07 9.73
8490 18.9800 94.29 92.04 8.99
8491 18.9820 94.34 88.62 8.89
8492 18.9840 85.81 86.05 8.63
8493 18.9860 84.79 84.25 8.54
8494 18.9880 70.80 83.06 7.80
8495 18.9900 76.08 82.29 8.15
8496 18.9920 68.92 81.80 7.70
8497 18.9940 80.74 81.50 8.36
8498 18.9960 75.59 81.32 8.08
8499 18.9980 73.28 81.23 7.97
8500 19.0000 80.06 81.22 8.33
8501 19.0020 88.00 81.29 8.77
8502 19.0040 88.71 81.47 8.82
8503 19.0060 82.56 81.77 8.56
8504 19.0080 83.85 82.28 8.58
8505 19.0100 88.38 83.10 8.70
8506 19.0120 83.59 84.35 8.57
8507 19.0140 90.45 86.19 8.96
8508 19.0160 102.72 88.69 9.52
8509 19.0180 101.09 91.80 9.38
8510 19.0200 87.28 95.02 8.69
8511 19.0220 89.70 97.22 8.79
8512 19.0240 84.90 97.12 8.52
8513 19.0260 98.94 94.78 9.16
8514 19.0280 90.33 91.50 8.82
8515 19.0300 103.10 88.39 9.45
8516 19.0320 81.28 85.88 8.30
8517 19.0340 74.64 84.05 8.06
8518 19.0360 93.39 82.78 9.07
8519 19.0380 80.83 81.93 8.31
8520 19.0400 79.66 81.37 8.32
8521 19.0420 78.53 81.00 8.26
8522 19.0440 84.11 80.74 8.51
8523 19.0460 73.90 80.56 7.96
8524 19.0480 78.16 80.43 8.26
8525 19.0500 74.96 80.34 8.03
8526 19.0520 88.62 80.29 8.75
8527 19.0540 99.29 80.27 9.26
8528 19.0560 94.95 80.27 9.17
8529 19.0580 88.21 80.31 8.77
8530 19.0600 83.79 80.38 8.59
8531 19.0620 76.05 80.49 8.14
8532 19.0640 78.77 80.66 8.26
8533 19.0660 72.30 80.89 7.93
8534 19.0680 94.21 81.23 9.06
8535 19.0700 88.16 81.73 8.75
8536 19.0720 75.66 82.52 8.10
8537 19.0740 81.28 83.69 8.37
8538 19.0760 97.08 85.41 9.29
8539 19.0780 89.95 87.83 8.80
8540 19.0800 99.75 90.99 9.32
8541 19.0820 100.09 94.65 9.46
8542 19.0840 98.35 97.92 9.26
8543 19.0860 88.76 99.32 8.73
8544 19.0880 97.62 97.94 9.11
8545 19.0900 110.99 94.64 9.69
8546 19.0920 98.84 90.95 9.13
8547 19.0940 86.30 87.73 8.60
8548 19.0960 88.69 85.26 8.81
8549 19.0980 95.29 83.49 9.05
8550 19.1000 95.99 82.28 9.03
8551 19.1020 79.62 81.47 8.31
8552 19.1040 78.95 80.92 8.16
8553 19.1060 86.15 80.53 8.68
8554 19.1080 73.77 80.24 7.96
8555 19.1100 93.23 80.02 8.98
8556 19.1120 74.97 79.85 8.06
8557 19.1140 82.93 79.70 8.50
8558 19.1160 88.52 79.59 8.80
8559 19.1180 82.16 79.51 8.43
8560 19.1200 72.77 79.43 7.90
8561 19.1220 74.11 79.35 8.05
8562 19.1240 93.85 79.29 9.07
8563 19.1260 85.89 79.23 8.62
8564 19.1280 71.59 79.18 7.86
8565 19.1300 73.17 79.14 7.95
8566 19.1320 83.24 79.10 8.48
8567 19.1340 89.29 79.06 8.81
8568 19.1360 77.64 79.03 8.14
8569 19.1380 79.08 79.00 8.25
8570 19.1400 71.52 78.98 7.86
8571 19.1420 90.97 78.95 8.89
8572 19.1440 99.96 78.93 9.27
8573 19.1460 87.18 78.90 8.63
8574 19.1480 79.37 78.88 8.35
8575 19.1500 63.96 78.87 7.42
8576 19.1520 85.69 78.85 8.63
8577 19.1540 75.40 78.83 8.12
8578 19.1560 77.05 78.81 8.10
8579 19.1580 82.94 78.80 8.37
8580 19.1600 68.43 78.78 7.64
8581 19.1620 80.59 78.77 8.36
8582 19.1640 80.72 78.76 8.33
8583 19.1660 81.55 78.74 8.34
8584 19.1680 80.56 78.73 8.37
8585 19.1700 78.34 78.72 8.24
8586 19.1720 83.95 78.71 8.57
8587 19.1740 83.57 78.72 8.45
8588 19.1760 84.17 78.71 8.61
8589 19.1780 80.50 78.70 8.30
8590 19.1800 83.03 78.69 8.51
8591 19.1820 64.15 78.68 7.41
8592 19.1840 74.68 78.67 8.04
8593 19.1860 78.78 78.66 8.31
8594 19.1880 68.19 78.66 7.64
8595 19.1900 74.65 78.65 8.02
8596 19.1920 74.55 78.64 8.08
8597 19.1940 86.65 78.63 8.72
8598 19.1960 74.67 78.62 8.05
8599 19.1980 76.65 78.62 8.17
8600 19.2000 79.37 78.61 8.26
8601 19.2020 85.36 78.60 8.60
8602 19.2040 72.81 78.60 8.00
8603 19.2060 82.61 78.59 8.45
8604 19.2080 88.70 78.59 8.79
8605 19.2100 66.55 78.58 7.57
8606 19.2120 69.98 78.58 7.75
8607 19.2140 74.00 78.57 7.86
8608 19.2160 71.68 78.57 7.85
8609 19.2180 76.93 78.56 8.15
8610 19.2200 79.35 78.56 8.30
8611 19.2220 76.75 78.56 8.19
8612 19.2240 84.46 78.56 8.64
8613 19.2260 69.85 78.56 7.80
8614 19.2280 81.17 78.55 8.41
8615 19.2300 74.74 78.55 8.04
8616 19.2320 80.59 78.55 8.40
8617 19.2340 81.71 78.56 8.35
8618 19.2360 81.27 78.56 8.39
8619 19.2380 71.04 78.56 7.90
8620 19.2400 72.01 78.57 7.95
8621 19.2420 82.69 78.57 8.54
8622 19.2440 71.50 78.58 7.87
8623 19.2460 66.55 78.59 7.49
8624 19.2480 77.04 78.60 8.13
8625 19.2500 86.78 78.61 8.68
8626 19.2520 78.80 78.62 8.28
8627 19.2540 77.30 78.64 8.23
8628 19.2560 89.27 78.65 8.85
8629 19.2580 79.26 78.67 8.40
8630 19.2600 79.51 78.70 8.35
8631 19.2620 85.88 78.73 8.62
8632 19.2640 70.63 78.77 7.82
8633 19.2660 76.26 78.82 8.14
8634 19.2680 75.04 78.88 8.03
8635 19.2700 80.18 78.95 8.29
8636 19.2720 78.85 79.04 8.27
8637 19.2740 81.36 79.15 8.40
8638 19.2760 82.64 79.30 8.51
8639 19.2780 77.32 79.50 8.15
8640 19.2800 80.57 79.79 8.31
8641 19.2820 82.55 80.22 8.50
8642 19.2840 76.99 80.85 8.19
8643 19.2860 72.24 81.75 7.89
8644 19.2880 82.09 82.97 8.50
8645 19.2900 86.87 84.49 8.74
8646 19.2920 78.46 86.11 8.20
8647 19.2940 102.73 87.33 9.41
8648 19.2960 90.46 87.53 8.83
8649 19.2980 84.34 86.60 8.63
8650 19.3000 89.40 85.09 8.81
8651 19.3020 81.33 83.59 8.32
8652 19.3040 88.52 82.36 8.68
8653 19.3060 82.12 81.46 8.33
8654 19.3080 86.51 80.85 8.62
8655 19.3100 78.26 80.47 8.22
8656 19.3120 85.49 80.25 8.60
8657 19.3140 76.72 80.15 8.18
8658 19.3160 69.83 80.12 7.78
8659 19.3180 85.43 80.14 8.59
8660 19.3200 77.28 80.22 8.16
8661 19.3220 75.82 80.34 8.08
8662 19.3240 70.08 80.50 7.75
8663 19.3260 84.67 80.72 8.61
8664 19.3280 71.41 80.99 7.78
8665 19.3300 83.24 81.33 8.41
8666 19.3320 75.13 81.76 8.14
8667 19.3340 77.94 82.31 8.23
8668 19.3360 85.63 83.01 8.52
8669 19.3380 87.54 83.96 8.74
8670 19.3400 83.82 85.28 8.56
8671 19.3420 86.51 87.19 8.62
8672 19.3440 95.69 90.02 9.15
8673 19.3460 93.03 94.23 8.99
8674 19.3480 98.75 100.28 9.26
8675 19.3500 91.51 108.55 8.96
8676 19.3520 100.88 118.94 9.36
8677 19.3540 125.49 130.28 10.35
8678 19.3560 136.62 139.31 10.86
8679 19.3580 169.64 141.47 12.10
8680 19.3600 170.62 135.43 12.13
8681 19.3620 163.05 124.81 11.89
8682 19.3640 126.18 113.84 10.47
8683 19.3660 117.91 104.63 10.13
8684 19.3680 109.51 97.68 9.73
8685 19.3700 90.27 92.81 8.80
8686 19.3720 85.79 89.57 8.64
8687 19.3740 77.61 87.50 8.13
8688 19.3760 102.57 86.21 9.46
8689 19.3780 60.65 85.43 7.30
8690 19.3800 87.29 85.02 8.67
8691 19.3820 92.78 84.90 9.02
8692 19.3840 85.12 85.04 8.61
8693 19.3860 82.52 85.48 8.33
8694 19.3880 90.86 86.31 8.96
8695 19.3900 81.78 87.71 8.37
8696 19.3920 87.75 89.95 8.73
8697 19.3940 83.24 93.42 8.50
8698 19.3960 95.70 98.56 9.05
8699 19.3980 107.91 105.72 9.66
8700 19.4000 100.59 114.88 9.38
8701 19.4020 99.34 125.14 9.34
8702 19.4040 142.21 133.77 11.12
8703 19.4060 158.75 136.65 11.80
8704 19.4080 171.07 131.91 12.25
8705 19.4100 160.55 122.42 11.68
8706 19.4120 141.64 112.16 11.04
8707 19.4140 128.93 103.36 10.51
8708 19.4160 112.99 96.62 9.86
8709 19.4180 91.98 91.81 8.85
8710 19.4200 95.67 88.54 9.02
8711 19.4220 94.83 86.38 9.05
8712 19.4240 97.58 84.96 9.16
8713 19.4260 87.41 84.02 8.73
8714 19.4280 92.34 83.39 8.95
8715 19.4300 78.62 82.98 8.15
8716 19.4320 86.36 82.75 8.69
8717 19.4340 77.73 82.65 8.21
8718 19.4360 93.54 82.70 8.90
8719 19.4380 82.40 82.91 8.49
8720 19.4400 86.81 83.29 8.68
8721 19.4420 90.44 83.92 8.86
8722 19.4440 86.01 84.92 8.64
8723 19.4460 90.29 86.47 8.89
8724 19.4480 84.99 88.85 8.60
8725 19.4500 83.48 92.41 8.47
8726 19.4520 77.90 97.52 8.27
8727 19.4540 96.31 104.40 9.13
8728 19.4560 120.26 112.82 10.24
8729 19.4580 109.90 121.54 9.80
8730 19.4600 122.00 127.73 10.39
8731 19.4620 118.79 128.56 10.38
8732 19.4640 132.26 124.30 10.84
8733 19.4660 130.28 117.63 10.73
8734 19.4680 129.34 110.36 10.52
8735 19.4700 129.15 103.28 10.48
8736 19.4720 118.57 97.02 10.02
8737 19.4740 115.65 92.04 9.96
8738 19.4760 90.27 88.34 8.83
8739 19.4780 88.34 85.71 8.68
8740 19.4800 88.44 83.85 8.66
8741 19.4820 94.06 82.55 9.05
8742 19.4840 96.54 81.60 9.18
8743 19.4860 77.96 80.90 8.27
8744 19.4880 79.40 80.37 8.29
8745 19.4900 86.83 79.94 8.73
8746 19.4920 80.07 79.59 8.29
8747 19.4940 82.06 79.30 8.47
8748 19.4960 64.42 79.06 7.42
8749 19.4980 83.72 78.85 8.53
8750 19.5000 78.49 78.67 8.21
8751 19.5020 74.03 78.52 7.94
8752 19.5040 71.09 78.38 7.90
8753 19.5060 63.01 78.26 7.38
8754 19.5080 79.53 78.15 8.29
8755 19.5100 72.81 78.06 7.97
8756 19.5120 68.93 77.98 7.71
8757 19.5140 69.09 77.90 7.70
8758 19.5160 75.58 77.83 8.09
8759 19.5180 86.80 77.77 8.75
8760 19.5200 72.07 77.71 7.87
8761 19.5220 79.06 77.66 8.36
8762 19.5240 74.78 77.61 8.11
8763 19.5260 74.05 77.56 7.95
8764 19.5280 72.08 77.52 7.78
8765 19.5300 70.76 77.48 7.78
8766 19.5320 78.14 77.45 8.24
8767 19.5340 80.64 77.41 8.35
8768 19.5360 93.03 77.38 8.93
8769 19.5380 84.32 77.35 8.56
8770 19.5400 86.11 77.33 8.65
8771 19.5420 79.40 77.30 8.32
8772 19.5440 73.78 77.28 8.05
8773 19.5460 83.74 77.26 8.51
8774 19.5480 84.25 77.24 8.59
8775 19.5500 78.61 77.22 8.23
8776 19.5520 72.75 77.20 7.86
8777 19.5540 78.23 77.18 8.24
8778 19.5560 80.11 77.17 8.34
8779 19.5580 75.00 77.15 8.10
8780 19.5600 82.40 77.14 8.44
8781 19.5620 87.88 77.12 8.75
8782 19.5640 89.48 77.11 8.81
8783 19.5660 76.63 77.10 8.10
8784 19.5680 79.81 77.09 8.39
8785 19.5700 75.58 77.08 8.10
8786 19.5720 67.75 77.07 7.68
8787 19.5740 74.80 77.07 8.00
8788 19.5760 62.05 77.06 7.34
8789 19.5780 80.65 77.06 8.51
8790 19.5800 89.44 77.05 8.87
8791 19.5820 88.07 77.05 8.73
8792 19.5840 79.23 77.04 8.30
8793 19.5860 72.65 77.04 7.96
8794 19.5880 76.77 77.05 8.13
8795 19.5900 69.87 77.05 7.81
8796 19.5920 70.92 77.06 7.85
8797 19.5940 77.09 77.07 8.12
8798 19.5960 71.13 77.08 7.86
8799 19.5980 79.34 77.10 8.32
8800 19.6000 72.30 77.12 7.86
8801 19.6020 77.79 77.15 8.24
8802 19.6040 87.76 77.19 8.68
8803 19.6060 74.23 77.25 7.99
8804 19.6080 69.88 77.32 7.76
8805 19.6100 82.39 77.41 8.44
8806 19.6120 92.41 77.55 8.92
8807 19.6140 62.14 77.76 7.26
8808 19.6160 94.50 78.08 9.05
8809 19.6180 79.07 78.54 8.32
8810 19.6200 74.57 79.18 8.02
8811 19.6220 80.73 80.02 8.34
8812 19.6240 80.07 81.02 8.34
8813 19.6260 84.20 81.98 8.50
8814 19.6280 85.36 82.53 8.59
8815 19.6300 66.79 82.36 7.57
8816 19.6320 83.75 81.57 8.46
8817 19.6340 84.82 80.56 8.64
8818 19.6360 91.10 79.62 8.89
8819 19.6380 93.86 78.87 9.08
8820 19.6400 79.70 78.32 8.32
8821 19.6420 95.05 77.95 9.08
8822 19.6440 78.39 77.72 8.18
8823 19.6460 93.22 77.55 8.99
8824 19.6480 82.17 77.48 8.41
8825 19.6500 80.38 77.47 8.31
8826 19.6520 78.24 77.49 8.19
8827 19.6540 74.94 77.51 8.06
8828 19.6560 86.45 77.53 8.68
8829 19.6580 73.85 77.52 8.04
8830 19.6600 78.94 77.51 8.26
8831 19.6620 75.12 77.55 8.07
8832 19.6640 73.27 77.64 7.95
8833 19.6660 81.74 77.82 8.39
8834 19.6680 74.20 78.06 8.02
8835 19.6700 74.12 78.31 7.91
8836 19.6720 90.22 78.48 8.82
8837 19.6740 89.94 78.46 8.78
8838 19.6760 74.53 78.24 8.05
8839 19.6780 89.50 77.93 8.79
8840 19.6800 71.52 77.62 7.92
8841 19.6820 70.50 77.37 7.84
8842 19.6840 87.04 77.18 8.68
8843 19.6860 81.70 77.05 8.49
8844 19.6880 68.42 76.95 7.61
8845 19.6900 74.63 76.89 8.04
8846 19.6920 76.52 76.84 8.15
8847 19.6940 73.15 76.78 7.96
8848 19.6960 83.28 76.75 8.54
8849 19.6980 59.58 76.73 7.15
8850 19.7000 77.65 76.71 8.24
8851 19.7020 79.22 76.69 8.27
8852 19.7040 85.13 76.68 8.63
8853 19.7060 73.09 76.67 7.98
8854 19.7080 72.54 76.66 7.94
8855 19.7100 69.91 76.65 7.73
8856 19.7120 86.07 76.64 8.54
8857 19.7140 75.38 76.63 8.00
8858 19.7160 73.83 76.63 8.06
8859 19.7180 88.88 76.62 8.83
8860 19.7200 83.30 76.62 8.38
8861 19.7220 73.78 76.61 7.95
8862 19.7240 77.98 76.61 8.16
8863 19.7260 95.75 76.61 9.12
8864 19.7280 73.50 76.61 8.05
8865 19.7300 68.15 76.61 7.66
8866 19.7320 71.53 76.61 7.83
8867 19.7340 82.77 76.61 8.55
8868 19.7360 89.68 76.61 8.85
8869 19.7380 81.27 76.62 8.42
8870 19.7400 76.44 76.63 8.05
8871 19.7420 78.92 76.64 8.21
8872 19.7440 82.76 76.65 8.46
8873 19.7460 72.14 76.67 7.89
8874 19.7480 59.90 76.69 7.13
8875 19.7500 63.51 76.69 7.41
8876 19.7520 77.45 76.73 8.05
8877 19.7540 86.78 76.77 8.71
8878 19.7560 74.75 76.83 8.08
8879 19.7580 78.90 76.89 8.37
8880 19.7600 78.80 76.99 8.28
8881 19.7620 77.68 77.12 8.20
8882 19.7640 83.61 77.31 8.53
8883 19.7660 78.20 77.58 8.12
8884 19.7680 82.72 77.99 8.42
8885 19.7700 62.91 78.60 7.40
8886 19.7720 80.29 79.47 8.40
8887 19.7740 76.03 80.65 8.11
8888 19.7760 76.31 82.11 8.13
8889 19.7780 79.91 83.68 8.29
8890 19.7800 88.26 84.89 8.74
8891 19.7820 84.04 85.13 8.49
8892 19.7840 101.89 84.26 9.33
8893 19.7860 90.60 82.76 8.84
8894 19.7880 89.86 81.19 8.89
8895 19.7900 68.52 79.86 7.71
8896 19.7920 83.94 78.83 8.52
8897 19.7940 78.52 78.10 8.17
8898 19.7960 80.38 77.59 8.36
8899 19.7980 68.92 77.24 7.72
8900 19.8000 68.91 77.01 7.65
8901 19.8020 78.53 76.84 8.15
8902 19.8040 71.43 76.73 7.78
8903 19.8060 71.56 76.64 7.88
8904 19.8080 68.47 76.58 7.72
8905 19.8100 74.53 76.54 8.03
8906 19.8120 76.22 76.52 8.11
8907 19.8140 70.35 76.52 7.80
8908 19.8160 65.36 76.56 7.47
8909 19.8180 71.90 76.63 7.90
8910 19.8200 85.25 76.77 8.61
8911 19.8220 69.88 77.00 7.70
8912 19.8240 71.38 77.36 7.89
8913 19.8260 79.82 77.89 8.30
8914 19.8280 85.31 78.62 8.61
8915 19.8300 77.64 79.54 8.28
8916 19.8320 70.49 80.53 7.81
8917 19.8340 75.14 81.28 8.01
8918 19.8360 68.23 81.42 7.72
8919 19.8380 87.56 80.82 8.69
8920 19.8400 92.58 79.80 8.94
8921 19.8420 72.29 78.75 7.89
8922 19.8440 82.04 77.84 8.36
8923 19.8460 85.67 77.14 8.55
8924 19.8480 81.79 76.62 8.39
8925 19.8500 74.40 76.26 8.01
8926 19.8520 72.75 76.01 7.87
8927 19.8540 90.04 75.83 8.87
8928 19.8560 73.95 75.69 8.09
8929 19.8580 69.78 75.58 7.71
8930 19.8600 67.58 75.48 7.66
8931 19.8620 74.75 75.37 7.96
8932 19.8640 70.19 75.26 7.74
8933 19.8660 82.82 75.16 8.53
8934 19.8680 68.52 75.07 7.68
8935 19.8700 68.04 74.98 7.70
8936 19.8720 89.55 74.90 8.89
8937 19.8740 79.72 74.82 8.26
8938 19.8760 77.68 74.75 8.29
8939 19.8780 69.50 74.68 7.75
8940 19.8800 72.17 74.61 7.96
8941 19.8820 75.52 74.54 8.08
8942 19.8840 80.61 74.47 8.40
8943 19.8860 89.84 74.40 8.92
8944 19.8880 82.07 74.33 8.48
8945 19.8900 93.81 74.26 9.12
8946 19.8920 77.13 74.19 8.22
8947 19.8940 60.85 74.12 7.26
8948 19.8960 54.86 74.05 6.79
8949 19.8980 66.36 73.98 7.47
8950 19.9000 78.24 73.91 8.26
8951 19.9020 75.70 73.83 8.20
8952 19.9040 70.87 73.76 7.86
8953 19.9060 73.41 73.68 7.93
8954 19.9080 63.41 73.60 7.44
8955 19.9100 75.30 73.53 8.05
8956 19.9120 56.63 73.45 7.00
8957 19.9140 81.33 73.37 8.37
8958 19.9160 71.54 73.29 7.83
8959 19.9180 88.38 73.20 8.78
8960 19.9200 69.07 73.12 7.72
8961 19.9220 76.79 73.03 8.11
8962 19.9240 68.56 72.95 7.62
8963 19.9260 84.52 72.86 8.61
8964 19.9280 64.78 72.77 7.49
8965 19.9300 78.80 72.69 8.24
8966 19.9320 74.35 72.60 7.98
8967 19.9340 58.85 72.51 7.11
8968 19.9360 78.50 72.42 8.21
8969 19.9380 80.56 72.34 8.44
8970 19.9400 82.36 72.25 8.48
8971 19.9420 77.57 72.17 8.09
8972 19.9440 74.46 72.09 8.04
8973 19.9460 66.55 72.02 7.57
8974 19.9480 75.36 71.96 8.09
8975 19.9500 56.81 71.92 7.08
8976 19.9520 68.20 71.91 7.67
8977 19.9540 77.05 71.96 8.13
8978 19.9560 67.57 72.07 7.61
8979 19.9580 68.08 72.28 7.58
8980 19.9600 69.56 72.58 7.82
8981 19.9620 80.36 72.96 8.31
8982 19.9640 78.09 73.33 8.23
8983 19.9660 81.20 73.51 8.40
8984 19.9680 85.19 73.32 8.59
8985 19.9700 64.04 72.81 7.50
8986 19.9720 70.96 72.16 7.81
8987 19.9740 59.80 71.53 7.20
8988 19.9760 70.05 70.98 7.72
8989 19.9780 83.98 70.53 8.60
8990 19.9800 78.35 70.17 8.28
8991 19.9820 67.05 69.88 7.58
8992 19.9840 61.46 69.63 7.29
8993 19.9860 68.30 69.40 7.73
8994 19.9880 69.61 69.20 7.82
8995 19.9900 78.42 69.01 8.31
8996 19.9920 75.64 68.82 8.08
8997 19.9940 96.64 68.64 9.09
8998 19.9960 75.34 68.47 8.08
8999 19.9980 79.72 68.29 12.38

# 12. STRUCTURE-FACTOR LIST

loop_
_refln_index_h
_refln_index_k
_refln_index_l
_refln_F_squared_calc
_refln_F_squared_meas
_refln_observed_status
_refln_d_spacing
0 0 1 19176.68 18328.12 o 6.299021
1 1 0 17573.24 17503.57 o 6.241560
1 1 1 17570.80 18822.42 o 4.433625
2 0 0 21259.17 22428.77 o 4.413449
2 1 0 4238.23 4352.82 o 3.947509
2 0 1 18953.22 19607.90 o 3.614524
2 1 1 4618.32 4531.02 o 3.344944
0 0 2 159380.61 145947.00 o 3.149511
2 2 0 131251.62 124215.58 o 3.120780
1 1 2 16398.61 16769.00 o 2.811812
2 2 1 13614.88 15315.26 o 2.796394
3 1 0 19873.86 18671.77 o 2.791310
2 0 2 22558.39 22681.55 o 2.563673
3 1 1 21674.59 19043.96 o 2.551971
2 1 2 1252.78 1700.32 o 2.461937
3 2 0 1824.38 976.10 o 2.448141
3 2 1 233.33 189.57 < 2.281860
2 2 2 68989.35 72224.38 o 2.216813
4 0 0 53349.53 50433.47 o 2.206725
4 1 0 7268.80 6549.51 o 2.140837
0 0 3 2882.16 2780.42 o 2.099674
3 1 2 14671.64 14732.27 o 2.088968
4 0 1 8459.90 6653.85 o 2.082622
3 3 0 1084.34 1103.55 o 2.080520
4 1 1 3973.85 2859.12 o 2.026968
1 1 3 6340.89 5288.50 o 1.990086
3 3 1 3106.91 2798.79 o 1.975549
4 2 0 8683.56 7475.07 o 1.973754
3 2 2 675.68 692.23 o 1.932885
2 0 3 743.27 586.27 < 1.896041
4 2 1 20.11 11.83 < 1.883456
2 1 3 528.66 759.50 o 1.853757
4 0 2 30916.28 26418.04 o 1.807262
4 1 2 2534.56 2470.07 o 1.770532
4 3 0 744.29 635.41 < 1.765380
2 2 3 3572.73 2662.79 o 1.742084
3 3 2 2514.83 1628.35 o 1.735954
5 1 0 3193.21 2378.65 o 1.731097
4 3 1 2099.17 2254.33 o 1.699881
3 1 3 7431.19 7797.05 o 1.677951
4 2 2 8256.17 8738.83 o 1.672472
5 1 1 4739.85 4033.85 o 1.669210
5 2 0 117.01 97.91 < 1.639114
3 2 3 12.70 4.50 < 1.593783
5 2 1 22.69 27.63 < 1.586287
0 0 4 33125.35 29702.97 o 1.574755
4 4 0 19094.75 22534.94 o 1.560390
4 3 2 214.89 194.98 < 1.539960
1 1 4 10894.20 10145.81 o 1.526907
4 0 3 3168.67 3186.59 o 1.521131
5 1 2 3384.88 2446.93 o 1.517045
4 4 1 6194.59 5363.21 o 1.514610
5 3 0 10834.28 9439.16 o 1.513801
4 1 3 436.63 495.34 < 1.499035
2 0 4 14065.22 12530.35 o 1.483170
3 3 3 2867.43 2833.89 o 1.477875
5 3 1 12446.45 14499.84 o 1.471892
6 0 0 6040.74 6841.94 o 1.471150
2 1 4 41.18 30.51 < 1.462666
5 2 2 53.81 47.83 < 1.453991
6 1 0 2046.05 1040.66 < 1.451133
4 2 3 538.85 679.56 < 1.438111
6 0 1 1724.45 1529.72 < 1.432597
6 1 1 2023.92 2185.04 o 1.414093
2 2 4 16701.93 15043.72 o 1.405906
4 4 2 11490.64 11394.79 o 1.398197
6 2 0 7921.25 6529.06 o 1.395655
5 4 0 117.88 105.42 < 1.378530
3 1 4 7107.25 7065.97 o 1.371542
5 3 2 6701.49 6153.57 o 1.364382
6 2 1 3110.02 3596.73 o 1.362609
4 3 3 317.49 307.41 < 1.351236
5 4 1 38.81 33.26 < 1.346658
5 1 3 2987.22 2334.60 o 1.335676
6 0 2 4672.31 3451.88 o 1.332907
3 2 4 43.92 35.29 < 1.324416
6 1 2 707.20 412.24 < 1.317966
6 3 0 1300.12 1308.12 < 1.315836
5 2 3 7.90 29.71 < 1.292037
6 3 1 427.06 295.51 < 1.288033
4 0 4 8785.71 6554.69 o 1.281837
6 2 2 5345.70 4950.71 o 1.275986
4 1 4 125.06 164.55 < 1.268531
5 4 2 56.67 94.57 < 1.262859
0 0 5 360.07 210.06 < 1.259804
3 3 4 3221.07 2900.96 o 1.255630
4 4 3 2591.69 1833.14 < 1.252413
5 5 0 42.70 41.27 o 1.248312
7 1 0 2930.00 2832.11 o 1.248312
1 1 5 1218.31 1072.01 < 1.234900
4 2 4 4827.00 4918.92 o 1.230969
5 3 3 4466.13 4555.16 o 1.227937
5 5 1 453.79 425.29 o 1.224498
7 1 1 3262.23 3057.37 o 1.224498
6 4 0 1467.56 1379.03 o 1.224071
6 3 2 497.38 584.08 < 1.214133
7 2 0 67.38 95.14 < 1.212468
2 0 5 196.01 132.10 < 1.211418
6 0 3 1395.47 1198.60 < 1.204841
6 4 1 419.09 197.57 < 1.201593
2 1 5 10.49 6.11 < 1.200168
6 1 3 271.69 263.57 < 1.193772

